version 2
run General-0-20240729-11:15:50-2736
attr configname General
attr datetime 20240729-11:15:50
attr experiment General
attr inifile omnetpp.ini
attr iterationvars ""
attr iterationvarsf ""
attr measurement ""
attr network AFDXExampleNetwork
attr processid 2736
attr repetition 0
attr replication #0
attr resultdir results
attr runnumber 0
attr seedset 0
param **.scheduler.serviceTime 0s
param **.trafficSource1.interArrivalTime exponential(100s)
param **.trafficSource1.networkId 0
param **.trafficSource1.equipmentId 0
param **.trafficSource1.interfaceId 0
param **.trafficSource1.virtualLinkId "intuniform(0, 3)"
param **.trafficSource1.seqNum 0
param **.trafficSource1.partitionId 0
param **.trafficSource1.udpSrcPort 1234
param **.trafficSource1.udpDestPort 5678
param **.trafficSource1.jobKind trafficSource1.virtualLinkId
param **.trafficSource1.jobPriority "intuniform(0, 1)"
param **.ethSpeed 100Mbps
param **.utilizationTracker.noOfPorts 24
param **.utilizationTracker.ethSpeed 100
param *.S1.switchFabric.router.configTableName "\"Switch1.txt\""
param *.S_1.switchFabric.router.configTableName "\"Switch_1.txt\""
param *.S__1.switchFabric.router.configTableName "\"Switch__1.txt\""
param *.S_2.switchFabric.router.configTableName "\"Switch2.txt\""
param *.S_3.switchFabric.router.configTableName "\"Switch_3.txt\""
param *.S_4.switchFabric.router.configTableName "\"Switch_4.txt\""
param *.S2.switchFabric.router.configTableName "\"Switch2.txt\""
param *.S3.switchFabric.router.configTableName "\"Switch3.txt\""
param *.S4.switchFabric.router.configTableName "\"Switch4.txt\""
param **.S111.failureStartTime 10s
param **.S111.recoveryStartTime 30s
param **.S1.failureStartTime 10s
param **.S1.recoveryStartTime 30s
param **.S11.failureStartTime 10s
param **.S11.recoveryStartTime 30s

scalar AFDXExampleNetwork.S1.switchPort[0].txQueue "min length" 0
scalar AFDXExampleNetwork.S1.switchPort[0].txQueue "max length" 4
scalar AFDXExampleNetwork.S1.switchPort[0].txQueue "avg length" 0.0086507432785242
scalar AFDXExampleNetwork.S1.switchPort[0].txQueue utilization 0.008086530498709
scalar AFDXExampleNetwork.S1.switchPort[0].txQueue "dropped jobs" 0
scalar AFDXExampleNetwork.S1.switchPort[1].txQueue "min length" 0
scalar AFDXExampleNetwork.S1.switchPort[1].txQueue "max length" 6
scalar AFDXExampleNetwork.S1.switchPort[1].txQueue "avg length" 0.023889972147329
scalar AFDXExampleNetwork.S1.switchPort[1].txQueue utilization 0.021141508688817
scalar AFDXExampleNetwork.S1.switchPort[1].txQueue "dropped jobs" 0
scalar AFDXExampleNetwork.S1.switchPort[2].txQueue "min length" nan
scalar AFDXExampleNetwork.S1.switchPort[2].txQueue "max length" nan
scalar AFDXExampleNetwork.S1.switchPort[2].txQueue "avg length" nan
scalar AFDXExampleNetwork.S1.switchPort[2].txQueue utilization nan
scalar AFDXExampleNetwork.S1.switchPort[2].txQueue "dropped jobs" 0
scalar AFDXExampleNetwork.S1.switchPort[3].txQueue "min length" 0
scalar AFDXExampleNetwork.S1.switchPort[3].txQueue "max length" 5
scalar AFDXExampleNetwork.S1.switchPort[3].txQueue "avg length" 0.0078849336101008
scalar AFDXExampleNetwork.S1.switchPort[3].txQueue utilization 0.0073503491764743
scalar AFDXExampleNetwork.S1.switchPort[3].txQueue "dropped jobs" 0
scalar AFDXExampleNetwork.S1.switchPort[4].txQueue "min length" 0
scalar AFDXExampleNetwork.S1.switchPort[4].txQueue "max length" 4
scalar AFDXExampleNetwork.S1.switchPort[4].txQueue "avg length" 0.0060448900136632
scalar AFDXExampleNetwork.S1.switchPort[4].txQueue utilization 0.0057651538596448
scalar AFDXExampleNetwork.S1.switchPort[4].txQueue "dropped jobs" 0
scalar AFDXExampleNetwork.S1.switchPort[5].txQueue "min length" nan
scalar AFDXExampleNetwork.S1.switchPort[5].txQueue "max length" nan
scalar AFDXExampleNetwork.S1.switchPort[5].txQueue "avg length" nan
scalar AFDXExampleNetwork.S1.switchPort[5].txQueue utilization nan
scalar AFDXExampleNetwork.S1.switchPort[5].txQueue "dropped jobs" 0
scalar AFDXExampleNetwork.S1.switchPort[6].txQueue "min length" nan
scalar AFDXExampleNetwork.S1.switchPort[6].txQueue "max length" nan
scalar AFDXExampleNetwork.S1.switchPort[6].txQueue "avg length" nan
scalar AFDXExampleNetwork.S1.switchPort[6].txQueue utilization nan
scalar AFDXExampleNetwork.S1.switchPort[6].txQueue "dropped jobs" 0
scalar AFDXExampleNetwork.S1.switchPort[7].txQueue "min length" nan
scalar AFDXExampleNetwork.S1.switchPort[7].txQueue "max length" nan
scalar AFDXExampleNetwork.S1.switchPort[7].txQueue "avg length" nan
scalar AFDXExampleNetwork.S1.switchPort[7].txQueue utilization nan
scalar AFDXExampleNetwork.S1.switchPort[7].txQueue "dropped jobs" 0
scalar AFDXExampleNetwork.S1.switchPort[8].txQueue "min length" nan
scalar AFDXExampleNetwork.S1.switchPort[8].txQueue "max length" nan
scalar AFDXExampleNetwork.S1.switchPort[8].txQueue "avg length" nan
scalar AFDXExampleNetwork.S1.switchPort[8].txQueue utilization nan
scalar AFDXExampleNetwork.S1.switchPort[8].txQueue "dropped jobs" 0
scalar AFDXExampleNetwork.S1.switchPort[9].txQueue "min length" nan
scalar AFDXExampleNetwork.S1.switchPort[9].txQueue "max length" nan
scalar AFDXExampleNetwork.S1.switchPort[9].txQueue "avg length" nan
scalar AFDXExampleNetwork.S1.switchPort[9].txQueue utilization nan
scalar AFDXExampleNetwork.S1.switchPort[9].txQueue "dropped jobs" 0
scalar AFDXExampleNetwork.S1.switchPort[10].txQueue "min length" nan
scalar AFDXExampleNetwork.S1.switchPort[10].txQueue "max length" nan
scalar AFDXExampleNetwork.S1.switchPort[10].txQueue "avg length" nan
scalar AFDXExampleNetwork.S1.switchPort[10].txQueue utilization nan
scalar AFDXExampleNetwork.S1.switchPort[10].txQueue "dropped jobs" 0
scalar AFDXExampleNetwork.S1.switchPort[11].txQueue "min length" nan
scalar AFDXExampleNetwork.S1.switchPort[11].txQueue "max length" nan
scalar AFDXExampleNetwork.S1.switchPort[11].txQueue "avg length" nan
scalar AFDXExampleNetwork.S1.switchPort[11].txQueue utilization nan
scalar AFDXExampleNetwork.S1.switchPort[11].txQueue "dropped jobs" 0
scalar AFDXExampleNetwork.S1.switchPort[12].txQueue "min length" nan
scalar AFDXExampleNetwork.S1.switchPort[12].txQueue "max length" nan
scalar AFDXExampleNetwork.S1.switchPort[12].txQueue "avg length" nan
scalar AFDXExampleNetwork.S1.switchPort[12].txQueue utilization nan
scalar AFDXExampleNetwork.S1.switchPort[12].txQueue "dropped jobs" 0
scalar AFDXExampleNetwork.S1.switchPort[13].txQueue "min length" nan
scalar AFDXExampleNetwork.S1.switchPort[13].txQueue "max length" nan
scalar AFDXExampleNetwork.S1.switchPort[13].txQueue "avg length" nan
scalar AFDXExampleNetwork.S1.switchPort[13].txQueue utilization nan
scalar AFDXExampleNetwork.S1.switchPort[13].txQueue "dropped jobs" 0
scalar AFDXExampleNetwork.S1.switchPort[14].txQueue "min length" nan
scalar AFDXExampleNetwork.S1.switchPort[14].txQueue "max length" nan
scalar AFDXExampleNetwork.S1.switchPort[14].txQueue "avg length" nan
scalar AFDXExampleNetwork.S1.switchPort[14].txQueue utilization nan
scalar AFDXExampleNetwork.S1.switchPort[14].txQueue "dropped jobs" 0
scalar AFDXExampleNetwork.S1.switchPort[15].txQueue "min length" nan
scalar AFDXExampleNetwork.S1.switchPort[15].txQueue "max length" nan
scalar AFDXExampleNetwork.S1.switchPort[15].txQueue "avg length" nan
scalar AFDXExampleNetwork.S1.switchPort[15].txQueue utilization nan
scalar AFDXExampleNetwork.S1.switchPort[15].txQueue "dropped jobs" 0
scalar AFDXExampleNetwork.S1.switchPort[16].txQueue "min length" nan
scalar AFDXExampleNetwork.S1.switchPort[16].txQueue "max length" nan
scalar AFDXExampleNetwork.S1.switchPort[16].txQueue "avg length" nan
scalar AFDXExampleNetwork.S1.switchPort[16].txQueue utilization nan
scalar AFDXExampleNetwork.S1.switchPort[16].txQueue "dropped jobs" 0
scalar AFDXExampleNetwork.S1.switchPort[17].txQueue "min length" nan
scalar AFDXExampleNetwork.S1.switchPort[17].txQueue "max length" nan
scalar AFDXExampleNetwork.S1.switchPort[17].txQueue "avg length" nan
scalar AFDXExampleNetwork.S1.switchPort[17].txQueue utilization nan
scalar AFDXExampleNetwork.S1.switchPort[17].txQueue "dropped jobs" 0
scalar AFDXExampleNetwork.S1.switchPort[18].txQueue "min length" nan
scalar AFDXExampleNetwork.S1.switchPort[18].txQueue "max length" nan
scalar AFDXExampleNetwork.S1.switchPort[18].txQueue "avg length" nan
scalar AFDXExampleNetwork.S1.switchPort[18].txQueue utilization nan
scalar AFDXExampleNetwork.S1.switchPort[18].txQueue "dropped jobs" 0
scalar AFDXExampleNetwork.S1.switchPort[19].txQueue "min length" nan
scalar AFDXExampleNetwork.S1.switchPort[19].txQueue "max length" nan
scalar AFDXExampleNetwork.S1.switchPort[19].txQueue "avg length" nan
scalar AFDXExampleNetwork.S1.switchPort[19].txQueue utilization nan
scalar AFDXExampleNetwork.S1.switchPort[19].txQueue "dropped jobs" 0
scalar AFDXExampleNetwork.S1.switchPort[20].txQueue "min length" nan
scalar AFDXExampleNetwork.S1.switchPort[20].txQueue "max length" nan
scalar AFDXExampleNetwork.S1.switchPort[20].txQueue "avg length" nan
scalar AFDXExampleNetwork.S1.switchPort[20].txQueue utilization nan
scalar AFDXExampleNetwork.S1.switchPort[20].txQueue "dropped jobs" 0
scalar AFDXExampleNetwork.S1.switchPort[21].txQueue "min length" nan
scalar AFDXExampleNetwork.S1.switchPort[21].txQueue "max length" nan
scalar AFDXExampleNetwork.S1.switchPort[21].txQueue "avg length" nan
scalar AFDXExampleNetwork.S1.switchPort[21].txQueue utilization nan
scalar AFDXExampleNetwork.S1.switchPort[21].txQueue "dropped jobs" 0
scalar AFDXExampleNetwork.S1.switchPort[22].txQueue "min length" nan
scalar AFDXExampleNetwork.S1.switchPort[22].txQueue "max length" nan
scalar AFDXExampleNetwork.S1.switchPort[22].txQueue "avg length" nan
scalar AFDXExampleNetwork.S1.switchPort[22].txQueue utilization nan
scalar AFDXExampleNetwork.S1.switchPort[22].txQueue "dropped jobs" 0
scalar AFDXExampleNetwork.S1.switchPort[23].txQueue "min length" nan
scalar AFDXExampleNetwork.S1.switchPort[23].txQueue "max length" nan
scalar AFDXExampleNetwork.S1.switchPort[23].txQueue "avg length" nan
scalar AFDXExampleNetwork.S1.switchPort[23].txQueue utilization nan
scalar AFDXExampleNetwork.S1.switchPort[23].txQueue "dropped jobs" 0
scalar AFDXExampleNetwork.S1.switchFabric.lowQueue "min length" 0
scalar AFDXExampleNetwork.S1.switchFabric.lowQueue "max length" 1
scalar AFDXExampleNetwork.S1.switchFabric.lowQueue "avg length" 0
scalar AFDXExampleNetwork.S1.switchFabric.lowQueue utilization 0
scalar AFDXExampleNetwork.S1.switchFabric.lowQueue "dropped jobs" 0
scalar AFDXExampleNetwork.S1.switchFabric.highQueue "min length" 0
scalar AFDXExampleNetwork.S1.switchFabric.highQueue "max length" 1
scalar AFDXExampleNetwork.S1.switchFabric.highQueue "avg length" 0
scalar AFDXExampleNetwork.S1.switchFabric.highQueue utilization 0
scalar AFDXExampleNetwork.S1.switchFabric.highQueue "dropped jobs" 0
scalar AFDXExampleNetwork.S1.switchFabric.scheduler utilization 0
scalar AFDXExampleNetwork.SECC1_COM.trafficSource1 "jobs created" 0
scalar AFDXExampleNetwork.SECC1_COM.trafficSink generation:mean nan
attr interpolationmode none
attr title "the generation of the arrived jobs, mean"
scalar AFDXExampleNetwork.SECC1_COM.trafficSink generation:max nan
attr interpolationmode none
attr title "the generation of the arrived jobs, max"
scalar AFDXExampleNetwork.SECC1_COM.trafficSink delaysVisited:mean nan
attr interpolationmode none
attr title "the total number of delays visited by arrived jobs, mean"
scalar AFDXExampleNetwork.SECC1_COM.trafficSink delaysVisited:max nan
attr interpolationmode none
attr title "the total number of delays visited by arrived jobs, max"
scalar AFDXExampleNetwork.SECC1_COM.trafficSink queuesVisited:mean nan
attr interpolationmode none
attr title "the total number of queues visited by arrived jobs, mean"
scalar AFDXExampleNetwork.SECC1_COM.trafficSink queuesVisited:max nan
attr interpolationmode none
attr title "the total number of queues visited by arrived jobs, max"
scalar AFDXExampleNetwork.SECC1_COM.trafficSink totalServiceTime:mean nan
attr interpolationmode none
attr title "the total time spent  by arrived jobs, mean"
attr unit s
scalar AFDXExampleNetwork.SECC1_COM.trafficSink totalServiceTime:max nan
attr interpolationmode none
attr title "the total time spent  by arrived jobs, max"
attr unit s
scalar AFDXExampleNetwork.SECC1_COM.trafficSink totalDelayTime:mean nan
attr interpolationmode none
attr title "the total time spent in delay nodes by arrived jobs, mean"
attr unit s
scalar AFDXExampleNetwork.SECC1_COM.trafficSink totalDelayTime:max nan
attr interpolationmode none
attr title "the total time spent in delay nodes by arrived jobs, max"
attr unit s
scalar AFDXExampleNetwork.SECC1_COM.trafficSink totalQueueingTime:mean nan
attr interpolationmode none
attr title "the total time spent in queues by arrived jobs, mean"
attr unit s
scalar AFDXExampleNetwork.SECC1_COM.trafficSink totalQueueingTime:max nan
attr interpolationmode none
attr title "the total time spent in queues by arrived jobs, max"
attr unit s
scalar AFDXExampleNetwork.SECC1_COM.trafficSink lifeTime:mean nan
attr interpolationmode none
attr title "lifetime of arrived jobs, mean"
attr unit s
scalar AFDXExampleNetwork.SECC1_COM.trafficSink lifeTime:max nan
attr interpolationmode none
attr title "lifetime of arrived jobs, max"
attr unit s
scalar AFDXExampleNetwork.SECC1_COM.txQueueA "min length" 0
scalar AFDXExampleNetwork.SECC1_COM.txQueueA "max length" 1
scalar AFDXExampleNetwork.SECC1_COM.txQueueA "avg length" 2.1361393139936e-007
scalar AFDXExampleNetwork.SECC1_COM.txQueueA utilization 2.1361393139936e-007
scalar AFDXExampleNetwork.SECC1_COM.txQueueA "dropped jobs" 0
scalar AFDXExampleNetwork.SECC1_COM.txQueueB "min length" nan
scalar AFDXExampleNetwork.SECC1_COM.txQueueB "max length" nan
scalar AFDXExampleNetwork.SECC1_COM.txQueueB "avg length" nan
scalar AFDXExampleNetwork.SECC1_COM.txQueueB utilization nan
scalar AFDXExampleNetwork.SECC1_COM.txQueueB "dropped jobs" 0
scalar AFDXExampleNetwork.SECC1_COM.txQueueC "min length" nan
scalar AFDXExampleNetwork.SECC1_COM.txQueueC "max length" nan
scalar AFDXExampleNetwork.SECC1_COM.txQueueC "avg length" nan
scalar AFDXExampleNetwork.SECC1_COM.txQueueC utilization nan
scalar AFDXExampleNetwork.SECC1_COM.txQueueC "dropped jobs" 0
scalar AFDXExampleNetwork.SECC1_COM.txQueueD "min length" nan
scalar AFDXExampleNetwork.SECC1_COM.txQueueD "max length" nan
scalar AFDXExampleNetwork.SECC1_COM.txQueueD "avg length" nan
scalar AFDXExampleNetwork.SECC1_COM.txQueueD utilization nan
scalar AFDXExampleNetwork.SECC1_COM.txQueueD "dropped jobs" 0
scalar AFDXExampleNetwork.SECC1_COM.txQueueE "min length" nan
scalar AFDXExampleNetwork.SECC1_COM.txQueueE "max length" nan
scalar AFDXExampleNetwork.SECC1_COM.txQueueE "avg length" nan
scalar AFDXExampleNetwork.SECC1_COM.txQueueE utilization nan
scalar AFDXExampleNetwork.SECC1_COM.txQueueE "dropped jobs" 0
scalar AFDXExampleNetwork.SECC1_COM.txQueueF "min length" nan
scalar AFDXExampleNetwork.SECC1_COM.txQueueF "max length" nan
scalar AFDXExampleNetwork.SECC1_COM.txQueueF "avg length" nan
scalar AFDXExampleNetwork.SECC1_COM.txQueueF utilization nan
scalar AFDXExampleNetwork.SECC1_COM.txQueueF "dropped jobs" 0
scalar AFDXExampleNetwork.SECC1_COM.txQueueAA "min length" nan
scalar AFDXExampleNetwork.SECC1_COM.txQueueAA "max length" nan
scalar AFDXExampleNetwork.SECC1_COM.txQueueAA "avg length" nan
scalar AFDXExampleNetwork.SECC1_COM.txQueueAA utilization nan
scalar AFDXExampleNetwork.SECC1_COM.txQueueAA "dropped jobs" 0
scalar AFDXExampleNetwork.SECC1_COM.txQueueH "min length" nan
scalar AFDXExampleNetwork.SECC1_COM.txQueueH "max length" nan
scalar AFDXExampleNetwork.SECC1_COM.txQueueH "avg length" nan
scalar AFDXExampleNetwork.SECC1_COM.txQueueH utilization nan
scalar AFDXExampleNetwork.SECC1_COM.txQueueH "dropped jobs" 0
scalar AFDXExampleNetwork.SECC1_COM.txQueueI "min length" nan
scalar AFDXExampleNetwork.SECC1_COM.txQueueI "max length" nan
scalar AFDXExampleNetwork.SECC1_COM.txQueueI "avg length" nan
scalar AFDXExampleNetwork.SECC1_COM.txQueueI utilization nan
scalar AFDXExampleNetwork.SECC1_COM.txQueueI "dropped jobs" 0
scalar AFDXExampleNetwork.ECSC1_COM.trafficSource1 "jobs created" 0
scalar AFDXExampleNetwork.ECSC1_COM.trafficSink generation:mean nan
attr interpolationmode none
attr title "the generation of the arrived jobs, mean"
scalar AFDXExampleNetwork.ECSC1_COM.trafficSink generation:max nan
attr interpolationmode none
attr title "the generation of the arrived jobs, max"
scalar AFDXExampleNetwork.ECSC1_COM.trafficSink delaysVisited:mean nan
attr interpolationmode none
attr title "the total number of delays visited by arrived jobs, mean"
scalar AFDXExampleNetwork.ECSC1_COM.trafficSink delaysVisited:max nan
attr interpolationmode none
attr title "the total number of delays visited by arrived jobs, max"
scalar AFDXExampleNetwork.ECSC1_COM.trafficSink queuesVisited:mean nan
attr interpolationmode none
attr title "the total number of queues visited by arrived jobs, mean"
scalar AFDXExampleNetwork.ECSC1_COM.trafficSink queuesVisited:max nan
attr interpolationmode none
attr title "the total number of queues visited by arrived jobs, max"
scalar AFDXExampleNetwork.ECSC1_COM.trafficSink totalServiceTime:mean nan
attr interpolationmode none
attr title "the total time spent  by arrived jobs, mean"
attr unit s
scalar AFDXExampleNetwork.ECSC1_COM.trafficSink totalServiceTime:max nan
attr interpolationmode none
attr title "the total time spent  by arrived jobs, max"
attr unit s
scalar AFDXExampleNetwork.ECSC1_COM.trafficSink totalDelayTime:mean nan
attr interpolationmode none
attr title "the total time spent in delay nodes by arrived jobs, mean"
attr unit s
scalar AFDXExampleNetwork.ECSC1_COM.trafficSink totalDelayTime:max nan
attr interpolationmode none
attr title "the total time spent in delay nodes by arrived jobs, max"
attr unit s
scalar AFDXExampleNetwork.ECSC1_COM.trafficSink totalQueueingTime:mean nan
attr interpolationmode none
attr title "the total time spent in queues by arrived jobs, mean"
attr unit s
scalar AFDXExampleNetwork.ECSC1_COM.trafficSink totalQueueingTime:max nan
attr interpolationmode none
attr title "the total time spent in queues by arrived jobs, max"
attr unit s
scalar AFDXExampleNetwork.ECSC1_COM.trafficSink lifeTime:mean nan
attr interpolationmode none
attr title "lifetime of arrived jobs, mean"
attr unit s
scalar AFDXExampleNetwork.ECSC1_COM.trafficSink lifeTime:max nan
attr interpolationmode none
attr title "lifetime of arrived jobs, max"
attr unit s
scalar AFDXExampleNetwork.ECSC1_COM.txQueueA "min length" 0
scalar AFDXExampleNetwork.ECSC1_COM.txQueueA "max length" 2
scalar AFDXExampleNetwork.ECSC1_COM.txQueueA "avg length" 5.5276250035723e-005
scalar AFDXExampleNetwork.ECSC1_COM.txQueueA utilization 5.489577794212e-005
scalar AFDXExampleNetwork.ECSC1_COM.txQueueA "dropped jobs" 0
scalar AFDXExampleNetwork.ECSC1_COM.txQueueB "min length" nan
scalar AFDXExampleNetwork.ECSC1_COM.txQueueB "max length" nan
scalar AFDXExampleNetwork.ECSC1_COM.txQueueB "avg length" nan
scalar AFDXExampleNetwork.ECSC1_COM.txQueueB utilization nan
scalar AFDXExampleNetwork.ECSC1_COM.txQueueB "dropped jobs" 0
scalar AFDXExampleNetwork.ECSC1_COM.txQueueC "min length" nan
scalar AFDXExampleNetwork.ECSC1_COM.txQueueC "max length" nan
scalar AFDXExampleNetwork.ECSC1_COM.txQueueC "avg length" nan
scalar AFDXExampleNetwork.ECSC1_COM.txQueueC utilization nan
scalar AFDXExampleNetwork.ECSC1_COM.txQueueC "dropped jobs" 0
scalar AFDXExampleNetwork.ECSC1_COM.txQueueD "min length" nan
scalar AFDXExampleNetwork.ECSC1_COM.txQueueD "max length" nan
scalar AFDXExampleNetwork.ECSC1_COM.txQueueD "avg length" nan
scalar AFDXExampleNetwork.ECSC1_COM.txQueueD utilization nan
scalar AFDXExampleNetwork.ECSC1_COM.txQueueD "dropped jobs" 0
scalar AFDXExampleNetwork.ECSC1_COM.txQueueE "min length" nan
scalar AFDXExampleNetwork.ECSC1_COM.txQueueE "max length" nan
scalar AFDXExampleNetwork.ECSC1_COM.txQueueE "avg length" nan
scalar AFDXExampleNetwork.ECSC1_COM.txQueueE utilization nan
scalar AFDXExampleNetwork.ECSC1_COM.txQueueE "dropped jobs" 0
scalar AFDXExampleNetwork.ECSC1_COM.txQueueF "min length" nan
scalar AFDXExampleNetwork.ECSC1_COM.txQueueF "max length" nan
scalar AFDXExampleNetwork.ECSC1_COM.txQueueF "avg length" nan
scalar AFDXExampleNetwork.ECSC1_COM.txQueueF utilization nan
scalar AFDXExampleNetwork.ECSC1_COM.txQueueF "dropped jobs" 0
scalar AFDXExampleNetwork.ECSC1_COM.txQueueAA "min length" nan
scalar AFDXExampleNetwork.ECSC1_COM.txQueueAA "max length" nan
scalar AFDXExampleNetwork.ECSC1_COM.txQueueAA "avg length" nan
scalar AFDXExampleNetwork.ECSC1_COM.txQueueAA utilization nan
scalar AFDXExampleNetwork.ECSC1_COM.txQueueAA "dropped jobs" 0
scalar AFDXExampleNetwork.ECSC1_COM.txQueueH "min length" nan
scalar AFDXExampleNetwork.ECSC1_COM.txQueueH "max length" nan
scalar AFDXExampleNetwork.ECSC1_COM.txQueueH "avg length" nan
scalar AFDXExampleNetwork.ECSC1_COM.txQueueH utilization nan
scalar AFDXExampleNetwork.ECSC1_COM.txQueueH "dropped jobs" 0
scalar AFDXExampleNetwork.ECSC1_COM.txQueueI "min length" nan
scalar AFDXExampleNetwork.ECSC1_COM.txQueueI "max length" nan
scalar AFDXExampleNetwork.ECSC1_COM.txQueueI "avg length" nan
scalar AFDXExampleNetwork.ECSC1_COM.txQueueI utilization nan
scalar AFDXExampleNetwork.ECSC1_COM.txQueueI "dropped jobs" 0
scalar AFDXExampleNetwork.ECSC1_MON.trafficSource1 "jobs created" 0
scalar AFDXExampleNetwork.ECSC1_MON.trafficSink generation:mean nan
attr interpolationmode none
attr title "the generation of the arrived jobs, mean"
scalar AFDXExampleNetwork.ECSC1_MON.trafficSink generation:max nan
attr interpolationmode none
attr title "the generation of the arrived jobs, max"
scalar AFDXExampleNetwork.ECSC1_MON.trafficSink delaysVisited:mean nan
attr interpolationmode none
attr title "the total number of delays visited by arrived jobs, mean"
scalar AFDXExampleNetwork.ECSC1_MON.trafficSink delaysVisited:max nan
attr interpolationmode none
attr title "the total number of delays visited by arrived jobs, max"
scalar AFDXExampleNetwork.ECSC1_MON.trafficSink queuesVisited:mean nan
attr interpolationmode none
attr title "the total number of queues visited by arrived jobs, mean"
scalar AFDXExampleNetwork.ECSC1_MON.trafficSink queuesVisited:max nan
attr interpolationmode none
attr title "the total number of queues visited by arrived jobs, max"
scalar AFDXExampleNetwork.ECSC1_MON.trafficSink totalServiceTime:mean nan
attr interpolationmode none
attr title "the total time spent  by arrived jobs, mean"
attr unit s
scalar AFDXExampleNetwork.ECSC1_MON.trafficSink totalServiceTime:max nan
attr interpolationmode none
attr title "the total time spent  by arrived jobs, max"
attr unit s
scalar AFDXExampleNetwork.ECSC1_MON.trafficSink totalDelayTime:mean nan
attr interpolationmode none
attr title "the total time spent in delay nodes by arrived jobs, mean"
attr unit s
scalar AFDXExampleNetwork.ECSC1_MON.trafficSink totalDelayTime:max nan
attr interpolationmode none
attr title "the total time spent in delay nodes by arrived jobs, max"
attr unit s
scalar AFDXExampleNetwork.ECSC1_MON.trafficSink totalQueueingTime:mean nan
attr interpolationmode none
attr title "the total time spent in queues by arrived jobs, mean"
attr unit s
scalar AFDXExampleNetwork.ECSC1_MON.trafficSink totalQueueingTime:max nan
attr interpolationmode none
attr title "the total time spent in queues by arrived jobs, max"
attr unit s
scalar AFDXExampleNetwork.ECSC1_MON.trafficSink lifeTime:mean nan
attr interpolationmode none
attr title "lifetime of arrived jobs, mean"
attr unit s
scalar AFDXExampleNetwork.ECSC1_MON.trafficSink lifeTime:max nan
attr interpolationmode none
attr title "lifetime of arrived jobs, max"
attr unit s
scalar AFDXExampleNetwork.ECSC1_MON.txQueueA "min length" 0
scalar AFDXExampleNetwork.ECSC1_MON.txQueueA "max length" 2
scalar AFDXExampleNetwork.ECSC1_MON.txQueueA "avg length" 4.9207567807798e-005
scalar AFDXExampleNetwork.ECSC1_MON.txQueueA utilization 4.9000469866446e-005
scalar AFDXExampleNetwork.ECSC1_MON.txQueueA "dropped jobs" 0
scalar AFDXExampleNetwork.ECSC1_MON.txQueueB "min length" nan
scalar AFDXExampleNetwork.ECSC1_MON.txQueueB "max length" nan
scalar AFDXExampleNetwork.ECSC1_MON.txQueueB "avg length" nan
scalar AFDXExampleNetwork.ECSC1_MON.txQueueB utilization nan
scalar AFDXExampleNetwork.ECSC1_MON.txQueueB "dropped jobs" 0
scalar AFDXExampleNetwork.ECSC1_MON.txQueueC "min length" nan
scalar AFDXExampleNetwork.ECSC1_MON.txQueueC "max length" nan
scalar AFDXExampleNetwork.ECSC1_MON.txQueueC "avg length" nan
scalar AFDXExampleNetwork.ECSC1_MON.txQueueC utilization nan
scalar AFDXExampleNetwork.ECSC1_MON.txQueueC "dropped jobs" 0
scalar AFDXExampleNetwork.ECSC1_MON.txQueueD "min length" nan
scalar AFDXExampleNetwork.ECSC1_MON.txQueueD "max length" nan
scalar AFDXExampleNetwork.ECSC1_MON.txQueueD "avg length" nan
scalar AFDXExampleNetwork.ECSC1_MON.txQueueD utilization nan
scalar AFDXExampleNetwork.ECSC1_MON.txQueueD "dropped jobs" 0
scalar AFDXExampleNetwork.ECSC1_MON.txQueueE "min length" nan
scalar AFDXExampleNetwork.ECSC1_MON.txQueueE "max length" nan
scalar AFDXExampleNetwork.ECSC1_MON.txQueueE "avg length" nan
scalar AFDXExampleNetwork.ECSC1_MON.txQueueE utilization nan
scalar AFDXExampleNetwork.ECSC1_MON.txQueueE "dropped jobs" 0
scalar AFDXExampleNetwork.ECSC1_MON.txQueueF "min length" nan
scalar AFDXExampleNetwork.ECSC1_MON.txQueueF "max length" nan
scalar AFDXExampleNetwork.ECSC1_MON.txQueueF "avg length" nan
scalar AFDXExampleNetwork.ECSC1_MON.txQueueF utilization nan
scalar AFDXExampleNetwork.ECSC1_MON.txQueueF "dropped jobs" 0
scalar AFDXExampleNetwork.ECSC1_MON.txQueueAA "min length" nan
scalar AFDXExampleNetwork.ECSC1_MON.txQueueAA "max length" nan
scalar AFDXExampleNetwork.ECSC1_MON.txQueueAA "avg length" nan
scalar AFDXExampleNetwork.ECSC1_MON.txQueueAA utilization nan
scalar AFDXExampleNetwork.ECSC1_MON.txQueueAA "dropped jobs" 0
scalar AFDXExampleNetwork.ECSC1_MON.txQueueH "min length" nan
scalar AFDXExampleNetwork.ECSC1_MON.txQueueH "max length" nan
scalar AFDXExampleNetwork.ECSC1_MON.txQueueH "avg length" nan
scalar AFDXExampleNetwork.ECSC1_MON.txQueueH utilization nan
scalar AFDXExampleNetwork.ECSC1_MON.txQueueH "dropped jobs" 0
scalar AFDXExampleNetwork.ECSC1_MON.txQueueI "min length" nan
scalar AFDXExampleNetwork.ECSC1_MON.txQueueI "max length" nan
scalar AFDXExampleNetwork.ECSC1_MON.txQueueI "avg length" nan
scalar AFDXExampleNetwork.ECSC1_MON.txQueueI utilization nan
scalar AFDXExampleNetwork.ECSC1_MON.txQueueI "dropped jobs" 0
scalar AFDXExampleNetwork.SECC1_MON.trafficSource1 "jobs created" 0
scalar AFDXExampleNetwork.SECC1_MON.trafficSink generation:mean nan
attr interpolationmode none
attr title "the generation of the arrived jobs, mean"
scalar AFDXExampleNetwork.SECC1_MON.trafficSink generation:max nan
attr interpolationmode none
attr title "the generation of the arrived jobs, max"
scalar AFDXExampleNetwork.SECC1_MON.trafficSink delaysVisited:mean nan
attr interpolationmode none
attr title "the total number of delays visited by arrived jobs, mean"
scalar AFDXExampleNetwork.SECC1_MON.trafficSink delaysVisited:max nan
attr interpolationmode none
attr title "the total number of delays visited by arrived jobs, max"
scalar AFDXExampleNetwork.SECC1_MON.trafficSink queuesVisited:mean nan
attr interpolationmode none
attr title "the total number of queues visited by arrived jobs, mean"
scalar AFDXExampleNetwork.SECC1_MON.trafficSink queuesVisited:max nan
attr interpolationmode none
attr title "the total number of queues visited by arrived jobs, max"
scalar AFDXExampleNetwork.SECC1_MON.trafficSink totalServiceTime:mean nan
attr interpolationmode none
attr title "the total time spent  by arrived jobs, mean"
attr unit s
scalar AFDXExampleNetwork.SECC1_MON.trafficSink totalServiceTime:max nan
attr interpolationmode none
attr title "the total time spent  by arrived jobs, max"
attr unit s
scalar AFDXExampleNetwork.SECC1_MON.trafficSink totalDelayTime:mean nan
attr interpolationmode none
attr title "the total time spent in delay nodes by arrived jobs, mean"
attr unit s
scalar AFDXExampleNetwork.SECC1_MON.trafficSink totalDelayTime:max nan
attr interpolationmode none
attr title "the total time spent in delay nodes by arrived jobs, max"
attr unit s
scalar AFDXExampleNetwork.SECC1_MON.trafficSink totalQueueingTime:mean nan
attr interpolationmode none
attr title "the total time spent in queues by arrived jobs, mean"
attr unit s
scalar AFDXExampleNetwork.SECC1_MON.trafficSink totalQueueingTime:max nan
attr interpolationmode none
attr title "the total time spent in queues by arrived jobs, max"
attr unit s
scalar AFDXExampleNetwork.SECC1_MON.trafficSink lifeTime:mean nan
attr interpolationmode none
attr title "lifetime of arrived jobs, mean"
attr unit s
scalar AFDXExampleNetwork.SECC1_MON.trafficSink lifeTime:max nan
attr interpolationmode none
attr title "lifetime of arrived jobs, max"
attr unit s
scalar AFDXExampleNetwork.SECC1_MON.txQueueA "min length" nan
scalar AFDXExampleNetwork.SECC1_MON.txQueueA "max length" nan
scalar AFDXExampleNetwork.SECC1_MON.txQueueA "avg length" nan
scalar AFDXExampleNetwork.SECC1_MON.txQueueA utilization nan
scalar AFDXExampleNetwork.SECC1_MON.txQueueA "dropped jobs" 0
scalar AFDXExampleNetwork.SECC1_MON.txQueueB "min length" nan
scalar AFDXExampleNetwork.SECC1_MON.txQueueB "max length" nan
scalar AFDXExampleNetwork.SECC1_MON.txQueueB "avg length" nan
scalar AFDXExampleNetwork.SECC1_MON.txQueueB utilization nan
scalar AFDXExampleNetwork.SECC1_MON.txQueueB "dropped jobs" 0
scalar AFDXExampleNetwork.SECC1_MON.txQueueC "min length" nan
scalar AFDXExampleNetwork.SECC1_MON.txQueueC "max length" nan
scalar AFDXExampleNetwork.SECC1_MON.txQueueC "avg length" nan
scalar AFDXExampleNetwork.SECC1_MON.txQueueC utilization nan
scalar AFDXExampleNetwork.SECC1_MON.txQueueC "dropped jobs" 0
scalar AFDXExampleNetwork.SECC1_MON.txQueueD "min length" nan
scalar AFDXExampleNetwork.SECC1_MON.txQueueD "max length" nan
scalar AFDXExampleNetwork.SECC1_MON.txQueueD "avg length" nan
scalar AFDXExampleNetwork.SECC1_MON.txQueueD utilization nan
scalar AFDXExampleNetwork.SECC1_MON.txQueueD "dropped jobs" 0
scalar AFDXExampleNetwork.SECC1_MON.txQueueE "min length" nan
scalar AFDXExampleNetwork.SECC1_MON.txQueueE "max length" nan
scalar AFDXExampleNetwork.SECC1_MON.txQueueE "avg length" nan
scalar AFDXExampleNetwork.SECC1_MON.txQueueE utilization nan
scalar AFDXExampleNetwork.SECC1_MON.txQueueE "dropped jobs" 0
scalar AFDXExampleNetwork.SECC1_MON.txQueueF "min length" nan
scalar AFDXExampleNetwork.SECC1_MON.txQueueF "max length" nan
scalar AFDXExampleNetwork.SECC1_MON.txQueueF "avg length" nan
scalar AFDXExampleNetwork.SECC1_MON.txQueueF utilization nan
scalar AFDXExampleNetwork.SECC1_MON.txQueueF "dropped jobs" 0
scalar AFDXExampleNetwork.SECC1_MON.txQueueAA "min length" nan
scalar AFDXExampleNetwork.SECC1_MON.txQueueAA "max length" nan
scalar AFDXExampleNetwork.SECC1_MON.txQueueAA "avg length" nan
scalar AFDXExampleNetwork.SECC1_MON.txQueueAA utilization nan
scalar AFDXExampleNetwork.SECC1_MON.txQueueAA "dropped jobs" 0
scalar AFDXExampleNetwork.SECC1_MON.txQueueH "min length" nan
scalar AFDXExampleNetwork.SECC1_MON.txQueueH "max length" nan
scalar AFDXExampleNetwork.SECC1_MON.txQueueH "avg length" nan
scalar AFDXExampleNetwork.SECC1_MON.txQueueH utilization nan
scalar AFDXExampleNetwork.SECC1_MON.txQueueH "dropped jobs" 0
scalar AFDXExampleNetwork.SECC1_MON.txQueueI "min length" nan
scalar AFDXExampleNetwork.SECC1_MON.txQueueI "max length" nan
scalar AFDXExampleNetwork.SECC1_MON.txQueueI "avg length" nan
scalar AFDXExampleNetwork.SECC1_MON.txQueueI utilization nan
scalar AFDXExampleNetwork.SECC1_MON.txQueueI "dropped jobs" 0
scalar AFDXExampleNetwork.S11.switchPort[0].txQueue "min length" nan
scalar AFDXExampleNetwork.S11.switchPort[0].txQueue "max length" nan
scalar AFDXExampleNetwork.S11.switchPort[0].txQueue "avg length" nan
scalar AFDXExampleNetwork.S11.switchPort[0].txQueue utilization nan
scalar AFDXExampleNetwork.S11.switchPort[0].txQueue "dropped jobs" 0
scalar AFDXExampleNetwork.S11.switchPort[1].txQueue "min length" 0
scalar AFDXExampleNetwork.S11.switchPort[1].txQueue "max length" 6
scalar AFDXExampleNetwork.S11.switchPort[1].txQueue "avg length" 0.040215339924747
scalar AFDXExampleNetwork.S11.switchPort[1].txQueue utilization 0.034689179633617
scalar AFDXExampleNetwork.S11.switchPort[1].txQueue "dropped jobs" 0
scalar AFDXExampleNetwork.S11.switchPort[2].txQueue "min length" nan
scalar AFDXExampleNetwork.S11.switchPort[2].txQueue "max length" nan
scalar AFDXExampleNetwork.S11.switchPort[2].txQueue "avg length" nan
scalar AFDXExampleNetwork.S11.switchPort[2].txQueue utilization nan
scalar AFDXExampleNetwork.S11.switchPort[2].txQueue "dropped jobs" 0
scalar AFDXExampleNetwork.S11.switchPort[3].txQueue "min length" 0
scalar AFDXExampleNetwork.S11.switchPort[3].txQueue "max length" 5
scalar AFDXExampleNetwork.S11.switchPort[3].txQueue "avg length" 0.011304744160153
scalar AFDXExampleNetwork.S11.switchPort[3].txQueue utilization 0.010436341065096
scalar AFDXExampleNetwork.S11.switchPort[3].txQueue "dropped jobs" 0
scalar AFDXExampleNetwork.S11.switchPort[4].txQueue "min length" 0
scalar AFDXExampleNetwork.S11.switchPort[4].txQueue "max length" 4
scalar AFDXExampleNetwork.S11.switchPort[4].txQueue "avg length" 0.0075723434751179
scalar AFDXExampleNetwork.S11.switchPort[4].txQueue utilization 0.0070867178870932
scalar AFDXExampleNetwork.S11.switchPort[4].txQueue "dropped jobs" 0
scalar AFDXExampleNetwork.S11.switchPort[5].txQueue "min length" nan
scalar AFDXExampleNetwork.S11.switchPort[5].txQueue "max length" nan
scalar AFDXExampleNetwork.S11.switchPort[5].txQueue "avg length" nan
scalar AFDXExampleNetwork.S11.switchPort[5].txQueue utilization nan
scalar AFDXExampleNetwork.S11.switchPort[5].txQueue "dropped jobs" 0
scalar AFDXExampleNetwork.S11.switchPort[6].txQueue "min length" nan
scalar AFDXExampleNetwork.S11.switchPort[6].txQueue "max length" nan
scalar AFDXExampleNetwork.S11.switchPort[6].txQueue "avg length" nan
scalar AFDXExampleNetwork.S11.switchPort[6].txQueue utilization nan
scalar AFDXExampleNetwork.S11.switchPort[6].txQueue "dropped jobs" 0
scalar AFDXExampleNetwork.S11.switchPort[7].txQueue "min length" nan
scalar AFDXExampleNetwork.S11.switchPort[7].txQueue "max length" nan
scalar AFDXExampleNetwork.S11.switchPort[7].txQueue "avg length" nan
scalar AFDXExampleNetwork.S11.switchPort[7].txQueue utilization nan
scalar AFDXExampleNetwork.S11.switchPort[7].txQueue "dropped jobs" 0
scalar AFDXExampleNetwork.S11.switchPort[8].txQueue "min length" nan
scalar AFDXExampleNetwork.S11.switchPort[8].txQueue "max length" nan
scalar AFDXExampleNetwork.S11.switchPort[8].txQueue "avg length" nan
scalar AFDXExampleNetwork.S11.switchPort[8].txQueue utilization nan
scalar AFDXExampleNetwork.S11.switchPort[8].txQueue "dropped jobs" 0
scalar AFDXExampleNetwork.S11.switchPort[9].txQueue "min length" nan
scalar AFDXExampleNetwork.S11.switchPort[9].txQueue "max length" nan
scalar AFDXExampleNetwork.S11.switchPort[9].txQueue "avg length" nan
scalar AFDXExampleNetwork.S11.switchPort[9].txQueue utilization nan
scalar AFDXExampleNetwork.S11.switchPort[9].txQueue "dropped jobs" 0
scalar AFDXExampleNetwork.S11.switchPort[10].txQueue "min length" nan
scalar AFDXExampleNetwork.S11.switchPort[10].txQueue "max length" nan
scalar AFDXExampleNetwork.S11.switchPort[10].txQueue "avg length" nan
scalar AFDXExampleNetwork.S11.switchPort[10].txQueue utilization nan
scalar AFDXExampleNetwork.S11.switchPort[10].txQueue "dropped jobs" 0
scalar AFDXExampleNetwork.S11.switchPort[11].txQueue "min length" nan
scalar AFDXExampleNetwork.S11.switchPort[11].txQueue "max length" nan
scalar AFDXExampleNetwork.S11.switchPort[11].txQueue "avg length" nan
scalar AFDXExampleNetwork.S11.switchPort[11].txQueue utilization nan
scalar AFDXExampleNetwork.S11.switchPort[11].txQueue "dropped jobs" 0
scalar AFDXExampleNetwork.S11.switchPort[12].txQueue "min length" nan
scalar AFDXExampleNetwork.S11.switchPort[12].txQueue "max length" nan
scalar AFDXExampleNetwork.S11.switchPort[12].txQueue "avg length" nan
scalar AFDXExampleNetwork.S11.switchPort[12].txQueue utilization nan
scalar AFDXExampleNetwork.S11.switchPort[12].txQueue "dropped jobs" 0
scalar AFDXExampleNetwork.S11.switchPort[13].txQueue "min length" nan
scalar AFDXExampleNetwork.S11.switchPort[13].txQueue "max length" nan
scalar AFDXExampleNetwork.S11.switchPort[13].txQueue "avg length" nan
scalar AFDXExampleNetwork.S11.switchPort[13].txQueue utilization nan
scalar AFDXExampleNetwork.S11.switchPort[13].txQueue "dropped jobs" 0
scalar AFDXExampleNetwork.S11.switchPort[14].txQueue "min length" nan
scalar AFDXExampleNetwork.S11.switchPort[14].txQueue "max length" nan
scalar AFDXExampleNetwork.S11.switchPort[14].txQueue "avg length" nan
scalar AFDXExampleNetwork.S11.switchPort[14].txQueue utilization nan
scalar AFDXExampleNetwork.S11.switchPort[14].txQueue "dropped jobs" 0
scalar AFDXExampleNetwork.S11.switchPort[15].txQueue "min length" nan
scalar AFDXExampleNetwork.S11.switchPort[15].txQueue "max length" nan
scalar AFDXExampleNetwork.S11.switchPort[15].txQueue "avg length" nan
scalar AFDXExampleNetwork.S11.switchPort[15].txQueue utilization nan
scalar AFDXExampleNetwork.S11.switchPort[15].txQueue "dropped jobs" 0
scalar AFDXExampleNetwork.S11.switchPort[16].txQueue "min length" nan
scalar AFDXExampleNetwork.S11.switchPort[16].txQueue "max length" nan
scalar AFDXExampleNetwork.S11.switchPort[16].txQueue "avg length" nan
scalar AFDXExampleNetwork.S11.switchPort[16].txQueue utilization nan
scalar AFDXExampleNetwork.S11.switchPort[16].txQueue "dropped jobs" 0
scalar AFDXExampleNetwork.S11.switchPort[17].txQueue "min length" nan
scalar AFDXExampleNetwork.S11.switchPort[17].txQueue "max length" nan
scalar AFDXExampleNetwork.S11.switchPort[17].txQueue "avg length" nan
scalar AFDXExampleNetwork.S11.switchPort[17].txQueue utilization nan
scalar AFDXExampleNetwork.S11.switchPort[17].txQueue "dropped jobs" 0
scalar AFDXExampleNetwork.S11.switchPort[18].txQueue "min length" nan
scalar AFDXExampleNetwork.S11.switchPort[18].txQueue "max length" nan
scalar AFDXExampleNetwork.S11.switchPort[18].txQueue "avg length" nan
scalar AFDXExampleNetwork.S11.switchPort[18].txQueue utilization nan
scalar AFDXExampleNetwork.S11.switchPort[18].txQueue "dropped jobs" 0
scalar AFDXExampleNetwork.S11.switchPort[19].txQueue "min length" nan
scalar AFDXExampleNetwork.S11.switchPort[19].txQueue "max length" nan
scalar AFDXExampleNetwork.S11.switchPort[19].txQueue "avg length" nan
scalar AFDXExampleNetwork.S11.switchPort[19].txQueue utilization nan
scalar AFDXExampleNetwork.S11.switchPort[19].txQueue "dropped jobs" 0
scalar AFDXExampleNetwork.S11.switchPort[20].txQueue "min length" nan
scalar AFDXExampleNetwork.S11.switchPort[20].txQueue "max length" nan
scalar AFDXExampleNetwork.S11.switchPort[20].txQueue "avg length" nan
scalar AFDXExampleNetwork.S11.switchPort[20].txQueue utilization nan
scalar AFDXExampleNetwork.S11.switchPort[20].txQueue "dropped jobs" 0
scalar AFDXExampleNetwork.S11.switchPort[21].txQueue "min length" nan
scalar AFDXExampleNetwork.S11.switchPort[21].txQueue "max length" nan
scalar AFDXExampleNetwork.S11.switchPort[21].txQueue "avg length" nan
scalar AFDXExampleNetwork.S11.switchPort[21].txQueue utilization nan
scalar AFDXExampleNetwork.S11.switchPort[21].txQueue "dropped jobs" 0
scalar AFDXExampleNetwork.S11.switchPort[22].txQueue "min length" nan
scalar AFDXExampleNetwork.S11.switchPort[22].txQueue "max length" nan
scalar AFDXExampleNetwork.S11.switchPort[22].txQueue "avg length" nan
scalar AFDXExampleNetwork.S11.switchPort[22].txQueue utilization nan
scalar AFDXExampleNetwork.S11.switchPort[22].txQueue "dropped jobs" 0
scalar AFDXExampleNetwork.S11.switchPort[23].txQueue "min length" nan
scalar AFDXExampleNetwork.S11.switchPort[23].txQueue "max length" nan
scalar AFDXExampleNetwork.S11.switchPort[23].txQueue "avg length" nan
scalar AFDXExampleNetwork.S11.switchPort[23].txQueue utilization nan
scalar AFDXExampleNetwork.S11.switchPort[23].txQueue "dropped jobs" 0
scalar AFDXExampleNetwork.S11.switchFabric.lowQueue "min length" 0
scalar AFDXExampleNetwork.S11.switchFabric.lowQueue "max length" 1
scalar AFDXExampleNetwork.S11.switchFabric.lowQueue "avg length" 0
scalar AFDXExampleNetwork.S11.switchFabric.lowQueue utilization 0
scalar AFDXExampleNetwork.S11.switchFabric.lowQueue "dropped jobs" 0
scalar AFDXExampleNetwork.S11.switchFabric.highQueue "min length" 0
scalar AFDXExampleNetwork.S11.switchFabric.highQueue "max length" 1
scalar AFDXExampleNetwork.S11.switchFabric.highQueue "avg length" 0
scalar AFDXExampleNetwork.S11.switchFabric.highQueue utilization 0
scalar AFDXExampleNetwork.S11.switchFabric.highQueue "dropped jobs" 0
scalar AFDXExampleNetwork.S11.switchFabric.scheduler utilization 0
scalar AFDXExampleNetwork.ECGC1_COM.trafficSource1 "jobs created" 0
scalar AFDXExampleNetwork.ECGC1_COM.trafficSink generation:mean nan
attr interpolationmode none
attr title "the generation of the arrived jobs, mean"
scalar AFDXExampleNetwork.ECGC1_COM.trafficSink generation:max nan
attr interpolationmode none
attr title "the generation of the arrived jobs, max"
scalar AFDXExampleNetwork.ECGC1_COM.trafficSink delaysVisited:mean nan
attr interpolationmode none
attr title "the total number of delays visited by arrived jobs, mean"
scalar AFDXExampleNetwork.ECGC1_COM.trafficSink delaysVisited:max nan
attr interpolationmode none
attr title "the total number of delays visited by arrived jobs, max"
scalar AFDXExampleNetwork.ECGC1_COM.trafficSink queuesVisited:mean nan
attr interpolationmode none
attr title "the total number of queues visited by arrived jobs, mean"
scalar AFDXExampleNetwork.ECGC1_COM.trafficSink queuesVisited:max nan
attr interpolationmode none
attr title "the total number of queues visited by arrived jobs, max"
scalar AFDXExampleNetwork.ECGC1_COM.trafficSink totalServiceTime:mean nan
attr interpolationmode none
attr title "the total time spent  by arrived jobs, mean"
attr unit s
scalar AFDXExampleNetwork.ECGC1_COM.trafficSink totalServiceTime:max nan
attr interpolationmode none
attr title "the total time spent  by arrived jobs, max"
attr unit s
scalar AFDXExampleNetwork.ECGC1_COM.trafficSink totalDelayTime:mean nan
attr interpolationmode none
attr title "the total time spent in delay nodes by arrived jobs, mean"
attr unit s
scalar AFDXExampleNetwork.ECGC1_COM.trafficSink totalDelayTime:max nan
attr interpolationmode none
attr title "the total time spent in delay nodes by arrived jobs, max"
attr unit s
scalar AFDXExampleNetwork.ECGC1_COM.trafficSink totalQueueingTime:mean nan
attr interpolationmode none
attr title "the total time spent in queues by arrived jobs, mean"
attr unit s
scalar AFDXExampleNetwork.ECGC1_COM.trafficSink totalQueueingTime:max nan
attr interpolationmode none
attr title "the total time spent in queues by arrived jobs, max"
attr unit s
scalar AFDXExampleNetwork.ECGC1_COM.trafficSink lifeTime:mean nan
attr interpolationmode none
attr title "lifetime of arrived jobs, mean"
attr unit s
scalar AFDXExampleNetwork.ECGC1_COM.trafficSink lifeTime:max nan
attr interpolationmode none
attr title "lifetime of arrived jobs, max"
attr unit s
scalar AFDXExampleNetwork.ECGC1_COM.txQueueA "min length" 0
scalar AFDXExampleNetwork.ECGC1_COM.txQueueA "max length" 3
scalar AFDXExampleNetwork.ECGC1_COM.txQueueA "avg length" 0.00073661432763645
scalar AFDXExampleNetwork.ECGC1_COM.txQueueA utilization 0.00073096101793761
scalar AFDXExampleNetwork.ECGC1_COM.txQueueA "dropped jobs" 0
scalar AFDXExampleNetwork.ECGC1_COM.txQueueB "min length" nan
scalar AFDXExampleNetwork.ECGC1_COM.txQueueB "max length" nan
scalar AFDXExampleNetwork.ECGC1_COM.txQueueB "avg length" nan
scalar AFDXExampleNetwork.ECGC1_COM.txQueueB utilization nan
scalar AFDXExampleNetwork.ECGC1_COM.txQueueB "dropped jobs" 0
scalar AFDXExampleNetwork.ECGC1_COM.txQueueC "min length" nan
scalar AFDXExampleNetwork.ECGC1_COM.txQueueC "max length" nan
scalar AFDXExampleNetwork.ECGC1_COM.txQueueC "avg length" nan
scalar AFDXExampleNetwork.ECGC1_COM.txQueueC utilization nan
scalar AFDXExampleNetwork.ECGC1_COM.txQueueC "dropped jobs" 0
scalar AFDXExampleNetwork.ECGC1_COM.txQueueD "min length" nan
scalar AFDXExampleNetwork.ECGC1_COM.txQueueD "max length" nan
scalar AFDXExampleNetwork.ECGC1_COM.txQueueD "avg length" nan
scalar AFDXExampleNetwork.ECGC1_COM.txQueueD utilization nan
scalar AFDXExampleNetwork.ECGC1_COM.txQueueD "dropped jobs" 0
scalar AFDXExampleNetwork.ECGC1_COM.txQueueE "min length" nan
scalar AFDXExampleNetwork.ECGC1_COM.txQueueE "max length" nan
scalar AFDXExampleNetwork.ECGC1_COM.txQueueE "avg length" nan
scalar AFDXExampleNetwork.ECGC1_COM.txQueueE utilization nan
scalar AFDXExampleNetwork.ECGC1_COM.txQueueE "dropped jobs" 0
scalar AFDXExampleNetwork.ECGC1_COM.txQueueF "min length" nan
scalar AFDXExampleNetwork.ECGC1_COM.txQueueF "max length" nan
scalar AFDXExampleNetwork.ECGC1_COM.txQueueF "avg length" nan
scalar AFDXExampleNetwork.ECGC1_COM.txQueueF utilization nan
scalar AFDXExampleNetwork.ECGC1_COM.txQueueF "dropped jobs" 0
scalar AFDXExampleNetwork.ECGC1_COM.txQueueAA "min length" nan
scalar AFDXExampleNetwork.ECGC1_COM.txQueueAA "max length" nan
scalar AFDXExampleNetwork.ECGC1_COM.txQueueAA "avg length" nan
scalar AFDXExampleNetwork.ECGC1_COM.txQueueAA utilization nan
scalar AFDXExampleNetwork.ECGC1_COM.txQueueAA "dropped jobs" 0
scalar AFDXExampleNetwork.ECGC1_COM.txQueueH "min length" nan
scalar AFDXExampleNetwork.ECGC1_COM.txQueueH "max length" nan
scalar AFDXExampleNetwork.ECGC1_COM.txQueueH "avg length" nan
scalar AFDXExampleNetwork.ECGC1_COM.txQueueH utilization nan
scalar AFDXExampleNetwork.ECGC1_COM.txQueueH "dropped jobs" 0
scalar AFDXExampleNetwork.ECGC1_COM.txQueueI "min length" nan
scalar AFDXExampleNetwork.ECGC1_COM.txQueueI "max length" nan
scalar AFDXExampleNetwork.ECGC1_COM.txQueueI "avg length" nan
scalar AFDXExampleNetwork.ECGC1_COM.txQueueI utilization nan
scalar AFDXExampleNetwork.ECGC1_COM.txQueueI "dropped jobs" 0
scalar AFDXExampleNetwork.ECGC2_COM.trafficSource1 "jobs created" 0
scalar AFDXExampleNetwork.ECGC2_COM.trafficSink generation:mean nan
attr interpolationmode none
attr title "the generation of the arrived jobs, mean"
scalar AFDXExampleNetwork.ECGC2_COM.trafficSink generation:max nan
attr interpolationmode none
attr title "the generation of the arrived jobs, max"
scalar AFDXExampleNetwork.ECGC2_COM.trafficSink delaysVisited:mean nan
attr interpolationmode none
attr title "the total number of delays visited by arrived jobs, mean"
scalar AFDXExampleNetwork.ECGC2_COM.trafficSink delaysVisited:max nan
attr interpolationmode none
attr title "the total number of delays visited by arrived jobs, max"
scalar AFDXExampleNetwork.ECGC2_COM.trafficSink queuesVisited:mean nan
attr interpolationmode none
attr title "the total number of queues visited by arrived jobs, mean"
scalar AFDXExampleNetwork.ECGC2_COM.trafficSink queuesVisited:max nan
attr interpolationmode none
attr title "the total number of queues visited by arrived jobs, max"
scalar AFDXExampleNetwork.ECGC2_COM.trafficSink totalServiceTime:mean nan
attr interpolationmode none
attr title "the total time spent  by arrived jobs, mean"
attr unit s
scalar AFDXExampleNetwork.ECGC2_COM.trafficSink totalServiceTime:max nan
attr interpolationmode none
attr title "the total time spent  by arrived jobs, max"
attr unit s
scalar AFDXExampleNetwork.ECGC2_COM.trafficSink totalDelayTime:mean nan
attr interpolationmode none
attr title "the total time spent in delay nodes by arrived jobs, mean"
attr unit s
scalar AFDXExampleNetwork.ECGC2_COM.trafficSink totalDelayTime:max nan
attr interpolationmode none
attr title "the total time spent in delay nodes by arrived jobs, max"
attr unit s
scalar AFDXExampleNetwork.ECGC2_COM.trafficSink totalQueueingTime:mean nan
attr interpolationmode none
attr title "the total time spent in queues by arrived jobs, mean"
attr unit s
scalar AFDXExampleNetwork.ECGC2_COM.trafficSink totalQueueingTime:max nan
attr interpolationmode none
attr title "the total time spent in queues by arrived jobs, max"
attr unit s
scalar AFDXExampleNetwork.ECGC2_COM.trafficSink lifeTime:mean nan
attr interpolationmode none
attr title "lifetime of arrived jobs, mean"
attr unit s
scalar AFDXExampleNetwork.ECGC2_COM.trafficSink lifeTime:max nan
attr interpolationmode none
attr title "lifetime of arrived jobs, max"
attr unit s
scalar AFDXExampleNetwork.ECGC2_COM.txQueueA "min length" 0
scalar AFDXExampleNetwork.ECGC2_COM.txQueueA "max length" 2
scalar AFDXExampleNetwork.ECGC2_COM.txQueueA "avg length" 0.00073078422336741
scalar AFDXExampleNetwork.ECGC2_COM.txQueueA utilization 0.00072427023987451
scalar AFDXExampleNetwork.ECGC2_COM.txQueueA "dropped jobs" 0
scalar AFDXExampleNetwork.ECGC2_COM.txQueueB "min length" nan
scalar AFDXExampleNetwork.ECGC2_COM.txQueueB "max length" nan
scalar AFDXExampleNetwork.ECGC2_COM.txQueueB "avg length" nan
scalar AFDXExampleNetwork.ECGC2_COM.txQueueB utilization nan
scalar AFDXExampleNetwork.ECGC2_COM.txQueueB "dropped jobs" 0
scalar AFDXExampleNetwork.ECGC2_COM.txQueueC "min length" nan
scalar AFDXExampleNetwork.ECGC2_COM.txQueueC "max length" nan
scalar AFDXExampleNetwork.ECGC2_COM.txQueueC "avg length" nan
scalar AFDXExampleNetwork.ECGC2_COM.txQueueC utilization nan
scalar AFDXExampleNetwork.ECGC2_COM.txQueueC "dropped jobs" 0
scalar AFDXExampleNetwork.ECGC2_COM.txQueueD "min length" nan
scalar AFDXExampleNetwork.ECGC2_COM.txQueueD "max length" nan
scalar AFDXExampleNetwork.ECGC2_COM.txQueueD "avg length" nan
scalar AFDXExampleNetwork.ECGC2_COM.txQueueD utilization nan
scalar AFDXExampleNetwork.ECGC2_COM.txQueueD "dropped jobs" 0
scalar AFDXExampleNetwork.ECGC2_COM.txQueueE "min length" nan
scalar AFDXExampleNetwork.ECGC2_COM.txQueueE "max length" nan
scalar AFDXExampleNetwork.ECGC2_COM.txQueueE "avg length" nan
scalar AFDXExampleNetwork.ECGC2_COM.txQueueE utilization nan
scalar AFDXExampleNetwork.ECGC2_COM.txQueueE "dropped jobs" 0
scalar AFDXExampleNetwork.ECGC2_COM.txQueueF "min length" nan
scalar AFDXExampleNetwork.ECGC2_COM.txQueueF "max length" nan
scalar AFDXExampleNetwork.ECGC2_COM.txQueueF "avg length" nan
scalar AFDXExampleNetwork.ECGC2_COM.txQueueF utilization nan
scalar AFDXExampleNetwork.ECGC2_COM.txQueueF "dropped jobs" 0
scalar AFDXExampleNetwork.ECGC2_COM.txQueueAA "min length" nan
scalar AFDXExampleNetwork.ECGC2_COM.txQueueAA "max length" nan
scalar AFDXExampleNetwork.ECGC2_COM.txQueueAA "avg length" nan
scalar AFDXExampleNetwork.ECGC2_COM.txQueueAA utilization nan
scalar AFDXExampleNetwork.ECGC2_COM.txQueueAA "dropped jobs" 0
scalar AFDXExampleNetwork.ECGC2_COM.txQueueH "min length" nan
scalar AFDXExampleNetwork.ECGC2_COM.txQueueH "max length" nan
scalar AFDXExampleNetwork.ECGC2_COM.txQueueH "avg length" nan
scalar AFDXExampleNetwork.ECGC2_COM.txQueueH utilization nan
scalar AFDXExampleNetwork.ECGC2_COM.txQueueH "dropped jobs" 0
scalar AFDXExampleNetwork.ECGC2_COM.txQueueI "min length" nan
scalar AFDXExampleNetwork.ECGC2_COM.txQueueI "max length" nan
scalar AFDXExampleNetwork.ECGC2_COM.txQueueI "avg length" nan
scalar AFDXExampleNetwork.ECGC2_COM.txQueueI utilization nan
scalar AFDXExampleNetwork.ECGC2_COM.txQueueI "dropped jobs" 0
scalar AFDXExampleNetwork.ECGC2_MON.trafficSource1 "jobs created" 0
scalar AFDXExampleNetwork.ECGC2_MON.trafficSink generation:mean nan
attr interpolationmode none
attr title "the generation of the arrived jobs, mean"
scalar AFDXExampleNetwork.ECGC2_MON.trafficSink generation:max nan
attr interpolationmode none
attr title "the generation of the arrived jobs, max"
scalar AFDXExampleNetwork.ECGC2_MON.trafficSink delaysVisited:mean nan
attr interpolationmode none
attr title "the total number of delays visited by arrived jobs, mean"
scalar AFDXExampleNetwork.ECGC2_MON.trafficSink delaysVisited:max nan
attr interpolationmode none
attr title "the total number of delays visited by arrived jobs, max"
scalar AFDXExampleNetwork.ECGC2_MON.trafficSink queuesVisited:mean nan
attr interpolationmode none
attr title "the total number of queues visited by arrived jobs, mean"
scalar AFDXExampleNetwork.ECGC2_MON.trafficSink queuesVisited:max nan
attr interpolationmode none
attr title "the total number of queues visited by arrived jobs, max"
scalar AFDXExampleNetwork.ECGC2_MON.trafficSink totalServiceTime:mean nan
attr interpolationmode none
attr title "the total time spent  by arrived jobs, mean"
attr unit s
scalar AFDXExampleNetwork.ECGC2_MON.trafficSink totalServiceTime:max nan
attr interpolationmode none
attr title "the total time spent  by arrived jobs, max"
attr unit s
scalar AFDXExampleNetwork.ECGC2_MON.trafficSink totalDelayTime:mean nan
attr interpolationmode none
attr title "the total time spent in delay nodes by arrived jobs, mean"
attr unit s
scalar AFDXExampleNetwork.ECGC2_MON.trafficSink totalDelayTime:max nan
attr interpolationmode none
attr title "the total time spent in delay nodes by arrived jobs, max"
attr unit s
scalar AFDXExampleNetwork.ECGC2_MON.trafficSink totalQueueingTime:mean nan
attr interpolationmode none
attr title "the total time spent in queues by arrived jobs, mean"
attr unit s
scalar AFDXExampleNetwork.ECGC2_MON.trafficSink totalQueueingTime:max nan
attr interpolationmode none
attr title "the total time spent in queues by arrived jobs, max"
attr unit s
scalar AFDXExampleNetwork.ECGC2_MON.trafficSink lifeTime:mean nan
attr interpolationmode none
attr title "lifetime of arrived jobs, mean"
attr unit s
scalar AFDXExampleNetwork.ECGC2_MON.trafficSink lifeTime:max nan
attr interpolationmode none
attr title "lifetime of arrived jobs, max"
attr unit s
scalar AFDXExampleNetwork.ECGC2_MON.txQueueA "min length" 0
scalar AFDXExampleNetwork.ECGC2_MON.txQueueA "max length" 2
scalar AFDXExampleNetwork.ECGC2_MON.txQueueA "avg length" 0.00073631661278243
scalar AFDXExampleNetwork.ECGC2_MON.txQueueA utilization 0.0007312887085006
scalar AFDXExampleNetwork.ECGC2_MON.txQueueA "dropped jobs" 0
scalar AFDXExampleNetwork.ECGC2_MON.txQueueB "min length" nan
scalar AFDXExampleNetwork.ECGC2_MON.txQueueB "max length" nan
scalar AFDXExampleNetwork.ECGC2_MON.txQueueB "avg length" nan
scalar AFDXExampleNetwork.ECGC2_MON.txQueueB utilization nan
scalar AFDXExampleNetwork.ECGC2_MON.txQueueB "dropped jobs" 0
scalar AFDXExampleNetwork.ECGC2_MON.txQueueC "min length" nan
scalar AFDXExampleNetwork.ECGC2_MON.txQueueC "max length" nan
scalar AFDXExampleNetwork.ECGC2_MON.txQueueC "avg length" nan
scalar AFDXExampleNetwork.ECGC2_MON.txQueueC utilization nan
scalar AFDXExampleNetwork.ECGC2_MON.txQueueC "dropped jobs" 0
scalar AFDXExampleNetwork.ECGC2_MON.txQueueD "min length" nan
scalar AFDXExampleNetwork.ECGC2_MON.txQueueD "max length" nan
scalar AFDXExampleNetwork.ECGC2_MON.txQueueD "avg length" nan
scalar AFDXExampleNetwork.ECGC2_MON.txQueueD utilization nan
scalar AFDXExampleNetwork.ECGC2_MON.txQueueD "dropped jobs" 0
scalar AFDXExampleNetwork.ECGC2_MON.txQueueE "min length" nan
scalar AFDXExampleNetwork.ECGC2_MON.txQueueE "max length" nan
scalar AFDXExampleNetwork.ECGC2_MON.txQueueE "avg length" nan
scalar AFDXExampleNetwork.ECGC2_MON.txQueueE utilization nan
scalar AFDXExampleNetwork.ECGC2_MON.txQueueE "dropped jobs" 0
scalar AFDXExampleNetwork.ECGC2_MON.txQueueF "min length" nan
scalar AFDXExampleNetwork.ECGC2_MON.txQueueF "max length" nan
scalar AFDXExampleNetwork.ECGC2_MON.txQueueF "avg length" nan
scalar AFDXExampleNetwork.ECGC2_MON.txQueueF utilization nan
scalar AFDXExampleNetwork.ECGC2_MON.txQueueF "dropped jobs" 0
scalar AFDXExampleNetwork.ECGC2_MON.txQueueAA "min length" nan
scalar AFDXExampleNetwork.ECGC2_MON.txQueueAA "max length" nan
scalar AFDXExampleNetwork.ECGC2_MON.txQueueAA "avg length" nan
scalar AFDXExampleNetwork.ECGC2_MON.txQueueAA utilization nan
scalar AFDXExampleNetwork.ECGC2_MON.txQueueAA "dropped jobs" 0
scalar AFDXExampleNetwork.ECGC2_MON.txQueueH "min length" nan
scalar AFDXExampleNetwork.ECGC2_MON.txQueueH "max length" nan
scalar AFDXExampleNetwork.ECGC2_MON.txQueueH "avg length" nan
scalar AFDXExampleNetwork.ECGC2_MON.txQueueH utilization nan
scalar AFDXExampleNetwork.ECGC2_MON.txQueueH "dropped jobs" 0
scalar AFDXExampleNetwork.ECGC2_MON.txQueueI "min length" nan
scalar AFDXExampleNetwork.ECGC2_MON.txQueueI "max length" nan
scalar AFDXExampleNetwork.ECGC2_MON.txQueueI "avg length" nan
scalar AFDXExampleNetwork.ECGC2_MON.txQueueI utilization nan
scalar AFDXExampleNetwork.ECGC2_MON.txQueueI "dropped jobs" 0
scalar AFDXExampleNetwork.ECSC2_COM.trafficSource1 "jobs created" 0
scalar AFDXExampleNetwork.ECSC2_COM.trafficSink generation:mean nan
attr interpolationmode none
attr title "the generation of the arrived jobs, mean"
scalar AFDXExampleNetwork.ECSC2_COM.trafficSink generation:max nan
attr interpolationmode none
attr title "the generation of the arrived jobs, max"
scalar AFDXExampleNetwork.ECSC2_COM.trafficSink delaysVisited:mean nan
attr interpolationmode none
attr title "the total number of delays visited by arrived jobs, mean"
scalar AFDXExampleNetwork.ECSC2_COM.trafficSink delaysVisited:max nan
attr interpolationmode none
attr title "the total number of delays visited by arrived jobs, max"
scalar AFDXExampleNetwork.ECSC2_COM.trafficSink queuesVisited:mean nan
attr interpolationmode none
attr title "the total number of queues visited by arrived jobs, mean"
scalar AFDXExampleNetwork.ECSC2_COM.trafficSink queuesVisited:max nan
attr interpolationmode none
attr title "the total number of queues visited by arrived jobs, max"
scalar AFDXExampleNetwork.ECSC2_COM.trafficSink totalServiceTime:mean nan
attr interpolationmode none
attr title "the total time spent  by arrived jobs, mean"
attr unit s
scalar AFDXExampleNetwork.ECSC2_COM.trafficSink totalServiceTime:max nan
attr interpolationmode none
attr title "the total time spent  by arrived jobs, max"
attr unit s
scalar AFDXExampleNetwork.ECSC2_COM.trafficSink totalDelayTime:mean nan
attr interpolationmode none
attr title "the total time spent in delay nodes by arrived jobs, mean"
attr unit s
scalar AFDXExampleNetwork.ECSC2_COM.trafficSink totalDelayTime:max nan
attr interpolationmode none
attr title "the total time spent in delay nodes by arrived jobs, max"
attr unit s
scalar AFDXExampleNetwork.ECSC2_COM.trafficSink totalQueueingTime:mean nan
attr interpolationmode none
attr title "the total time spent in queues by arrived jobs, mean"
attr unit s
scalar AFDXExampleNetwork.ECSC2_COM.trafficSink totalQueueingTime:max nan
attr interpolationmode none
attr title "the total time spent in queues by arrived jobs, max"
attr unit s
scalar AFDXExampleNetwork.ECSC2_COM.trafficSink lifeTime:mean nan
attr interpolationmode none
attr title "lifetime of arrived jobs, mean"
attr unit s
scalar AFDXExampleNetwork.ECSC2_COM.trafficSink lifeTime:max nan
attr interpolationmode none
attr title "lifetime of arrived jobs, max"
attr unit s
scalar AFDXExampleNetwork.ECSC2_COM.txQueueA "min length" 0
scalar AFDXExampleNetwork.ECSC2_COM.txQueueA "max length" 2
scalar AFDXExampleNetwork.ECSC2_COM.txQueueA "avg length" 5.3350246803809e-005
scalar AFDXExampleNetwork.ECSC2_COM.txQueueA utilization 5.3345173979983e-005
scalar AFDXExampleNetwork.ECSC2_COM.txQueueA "dropped jobs" 0
scalar AFDXExampleNetwork.ECSC2_COM.txQueueB "min length" nan
scalar AFDXExampleNetwork.ECSC2_COM.txQueueB "max length" nan
scalar AFDXExampleNetwork.ECSC2_COM.txQueueB "avg length" nan
scalar AFDXExampleNetwork.ECSC2_COM.txQueueB utilization nan
scalar AFDXExampleNetwork.ECSC2_COM.txQueueB "dropped jobs" 0
scalar AFDXExampleNetwork.ECSC2_COM.txQueueC "min length" nan
scalar AFDXExampleNetwork.ECSC2_COM.txQueueC "max length" nan
scalar AFDXExampleNetwork.ECSC2_COM.txQueueC "avg length" nan
scalar AFDXExampleNetwork.ECSC2_COM.txQueueC utilization nan
scalar AFDXExampleNetwork.ECSC2_COM.txQueueC "dropped jobs" 0
scalar AFDXExampleNetwork.ECSC2_COM.txQueueD "min length" nan
scalar AFDXExampleNetwork.ECSC2_COM.txQueueD "max length" nan
scalar AFDXExampleNetwork.ECSC2_COM.txQueueD "avg length" nan
scalar AFDXExampleNetwork.ECSC2_COM.txQueueD utilization nan
scalar AFDXExampleNetwork.ECSC2_COM.txQueueD "dropped jobs" 0
scalar AFDXExampleNetwork.ECSC2_COM.txQueueE "min length" nan
scalar AFDXExampleNetwork.ECSC2_COM.txQueueE "max length" nan
scalar AFDXExampleNetwork.ECSC2_COM.txQueueE "avg length" nan
scalar AFDXExampleNetwork.ECSC2_COM.txQueueE utilization nan
scalar AFDXExampleNetwork.ECSC2_COM.txQueueE "dropped jobs" 0
scalar AFDXExampleNetwork.ECSC2_COM.txQueueF "min length" nan
scalar AFDXExampleNetwork.ECSC2_COM.txQueueF "max length" nan
scalar AFDXExampleNetwork.ECSC2_COM.txQueueF "avg length" nan
scalar AFDXExampleNetwork.ECSC2_COM.txQueueF utilization nan
scalar AFDXExampleNetwork.ECSC2_COM.txQueueF "dropped jobs" 0
scalar AFDXExampleNetwork.ECSC2_COM.txQueueAA "min length" nan
scalar AFDXExampleNetwork.ECSC2_COM.txQueueAA "max length" nan
scalar AFDXExampleNetwork.ECSC2_COM.txQueueAA "avg length" nan
scalar AFDXExampleNetwork.ECSC2_COM.txQueueAA utilization nan
scalar AFDXExampleNetwork.ECSC2_COM.txQueueAA "dropped jobs" 0
scalar AFDXExampleNetwork.ECSC2_COM.txQueueH "min length" nan
scalar AFDXExampleNetwork.ECSC2_COM.txQueueH "max length" nan
scalar AFDXExampleNetwork.ECSC2_COM.txQueueH "avg length" nan
scalar AFDXExampleNetwork.ECSC2_COM.txQueueH utilization nan
scalar AFDXExampleNetwork.ECSC2_COM.txQueueH "dropped jobs" 0
scalar AFDXExampleNetwork.ECSC2_COM.txQueueI "min length" nan
scalar AFDXExampleNetwork.ECSC2_COM.txQueueI "max length" nan
scalar AFDXExampleNetwork.ECSC2_COM.txQueueI "avg length" nan
scalar AFDXExampleNetwork.ECSC2_COM.txQueueI utilization nan
scalar AFDXExampleNetwork.ECSC2_COM.txQueueI "dropped jobs" 0
scalar AFDXExampleNetwork.ECSC2_MON.trafficSource1 "jobs created" 0
scalar AFDXExampleNetwork.ECSC2_MON.trafficSink generation:mean nan
attr interpolationmode none
attr title "the generation of the arrived jobs, mean"
scalar AFDXExampleNetwork.ECSC2_MON.trafficSink generation:max nan
attr interpolationmode none
attr title "the generation of the arrived jobs, max"
scalar AFDXExampleNetwork.ECSC2_MON.trafficSink delaysVisited:mean nan
attr interpolationmode none
attr title "the total number of delays visited by arrived jobs, mean"
scalar AFDXExampleNetwork.ECSC2_MON.trafficSink delaysVisited:max nan
attr interpolationmode none
attr title "the total number of delays visited by arrived jobs, max"
scalar AFDXExampleNetwork.ECSC2_MON.trafficSink queuesVisited:mean nan
attr interpolationmode none
attr title "the total number of queues visited by arrived jobs, mean"
scalar AFDXExampleNetwork.ECSC2_MON.trafficSink queuesVisited:max nan
attr interpolationmode none
attr title "the total number of queues visited by arrived jobs, max"
scalar AFDXExampleNetwork.ECSC2_MON.trafficSink totalServiceTime:mean nan
attr interpolationmode none
attr title "the total time spent  by arrived jobs, mean"
attr unit s
scalar AFDXExampleNetwork.ECSC2_MON.trafficSink totalServiceTime:max nan
attr interpolationmode none
attr title "the total time spent  by arrived jobs, max"
attr unit s
scalar AFDXExampleNetwork.ECSC2_MON.trafficSink totalDelayTime:mean nan
attr interpolationmode none
attr title "the total time spent in delay nodes by arrived jobs, mean"
attr unit s
scalar AFDXExampleNetwork.ECSC2_MON.trafficSink totalDelayTime:max nan
attr interpolationmode none
attr title "the total time spent in delay nodes by arrived jobs, max"
attr unit s
scalar AFDXExampleNetwork.ECSC2_MON.trafficSink totalQueueingTime:mean nan
attr interpolationmode none
attr title "the total time spent in queues by arrived jobs, mean"
attr unit s
scalar AFDXExampleNetwork.ECSC2_MON.trafficSink totalQueueingTime:max nan
attr interpolationmode none
attr title "the total time spent in queues by arrived jobs, max"
attr unit s
scalar AFDXExampleNetwork.ECSC2_MON.trafficSink lifeTime:mean nan
attr interpolationmode none
attr title "lifetime of arrived jobs, mean"
attr unit s
scalar AFDXExampleNetwork.ECSC2_MON.trafficSink lifeTime:max nan
attr interpolationmode none
attr title "lifetime of arrived jobs, max"
attr unit s
scalar AFDXExampleNetwork.ECSC2_MON.txQueueA "min length" 0
scalar AFDXExampleNetwork.ECSC2_MON.txQueueA "max length" 2
scalar AFDXExampleNetwork.ECSC2_MON.txQueueA "avg length" 5.1124737279635e-005
scalar AFDXExampleNetwork.ECSC2_MON.txQueueA utilization 5.1101800062672e-005
scalar AFDXExampleNetwork.ECSC2_MON.txQueueA "dropped jobs" 0
scalar AFDXExampleNetwork.ECSC2_MON.txQueueB "min length" nan
scalar AFDXExampleNetwork.ECSC2_MON.txQueueB "max length" nan
scalar AFDXExampleNetwork.ECSC2_MON.txQueueB "avg length" nan
scalar AFDXExampleNetwork.ECSC2_MON.txQueueB utilization nan
scalar AFDXExampleNetwork.ECSC2_MON.txQueueB "dropped jobs" 0
scalar AFDXExampleNetwork.ECSC2_MON.txQueueC "min length" nan
scalar AFDXExampleNetwork.ECSC2_MON.txQueueC "max length" nan
scalar AFDXExampleNetwork.ECSC2_MON.txQueueC "avg length" nan
scalar AFDXExampleNetwork.ECSC2_MON.txQueueC utilization nan
scalar AFDXExampleNetwork.ECSC2_MON.txQueueC "dropped jobs" 0
scalar AFDXExampleNetwork.ECSC2_MON.txQueueD "min length" nan
scalar AFDXExampleNetwork.ECSC2_MON.txQueueD "max length" nan
scalar AFDXExampleNetwork.ECSC2_MON.txQueueD "avg length" nan
scalar AFDXExampleNetwork.ECSC2_MON.txQueueD utilization nan
scalar AFDXExampleNetwork.ECSC2_MON.txQueueD "dropped jobs" 0
scalar AFDXExampleNetwork.ECSC2_MON.txQueueE "min length" nan
scalar AFDXExampleNetwork.ECSC2_MON.txQueueE "max length" nan
scalar AFDXExampleNetwork.ECSC2_MON.txQueueE "avg length" nan
scalar AFDXExampleNetwork.ECSC2_MON.txQueueE utilization nan
scalar AFDXExampleNetwork.ECSC2_MON.txQueueE "dropped jobs" 0
scalar AFDXExampleNetwork.ECSC2_MON.txQueueF "min length" nan
scalar AFDXExampleNetwork.ECSC2_MON.txQueueF "max length" nan
scalar AFDXExampleNetwork.ECSC2_MON.txQueueF "avg length" nan
scalar AFDXExampleNetwork.ECSC2_MON.txQueueF utilization nan
scalar AFDXExampleNetwork.ECSC2_MON.txQueueF "dropped jobs" 0
scalar AFDXExampleNetwork.ECSC2_MON.txQueueAA "min length" nan
scalar AFDXExampleNetwork.ECSC2_MON.txQueueAA "max length" nan
scalar AFDXExampleNetwork.ECSC2_MON.txQueueAA "avg length" nan
scalar AFDXExampleNetwork.ECSC2_MON.txQueueAA utilization nan
scalar AFDXExampleNetwork.ECSC2_MON.txQueueAA "dropped jobs" 0
scalar AFDXExampleNetwork.ECSC2_MON.txQueueH "min length" nan
scalar AFDXExampleNetwork.ECSC2_MON.txQueueH "max length" nan
scalar AFDXExampleNetwork.ECSC2_MON.txQueueH "avg length" nan
scalar AFDXExampleNetwork.ECSC2_MON.txQueueH utilization nan
scalar AFDXExampleNetwork.ECSC2_MON.txQueueH "dropped jobs" 0
scalar AFDXExampleNetwork.ECSC2_MON.txQueueI "min length" nan
scalar AFDXExampleNetwork.ECSC2_MON.txQueueI "max length" nan
scalar AFDXExampleNetwork.ECSC2_MON.txQueueI "avg length" nan
scalar AFDXExampleNetwork.ECSC2_MON.txQueueI utilization nan
scalar AFDXExampleNetwork.ECSC2_MON.txQueueI "dropped jobs" 0
scalar AFDXExampleNetwork.ECGC1_MON.trafficSource1 "jobs created" 0
scalar AFDXExampleNetwork.ECGC1_MON.trafficSink generation:mean nan
attr interpolationmode none
attr title "the generation of the arrived jobs, mean"
scalar AFDXExampleNetwork.ECGC1_MON.trafficSink generation:max nan
attr interpolationmode none
attr title "the generation of the arrived jobs, max"
scalar AFDXExampleNetwork.ECGC1_MON.trafficSink delaysVisited:mean nan
attr interpolationmode none
attr title "the total number of delays visited by arrived jobs, mean"
scalar AFDXExampleNetwork.ECGC1_MON.trafficSink delaysVisited:max nan
attr interpolationmode none
attr title "the total number of delays visited by arrived jobs, max"
scalar AFDXExampleNetwork.ECGC1_MON.trafficSink queuesVisited:mean nan
attr interpolationmode none
attr title "the total number of queues visited by arrived jobs, mean"
scalar AFDXExampleNetwork.ECGC1_MON.trafficSink queuesVisited:max nan
attr interpolationmode none
attr title "the total number of queues visited by arrived jobs, max"
scalar AFDXExampleNetwork.ECGC1_MON.trafficSink totalServiceTime:mean nan
attr interpolationmode none
attr title "the total time spent  by arrived jobs, mean"
attr unit s
scalar AFDXExampleNetwork.ECGC1_MON.trafficSink totalServiceTime:max nan
attr interpolationmode none
attr title "the total time spent  by arrived jobs, max"
attr unit s
scalar AFDXExampleNetwork.ECGC1_MON.trafficSink totalDelayTime:mean nan
attr interpolationmode none
attr title "the total time spent in delay nodes by arrived jobs, mean"
attr unit s
scalar AFDXExampleNetwork.ECGC1_MON.trafficSink totalDelayTime:max nan
attr interpolationmode none
attr title "the total time spent in delay nodes by arrived jobs, max"
attr unit s
scalar AFDXExampleNetwork.ECGC1_MON.trafficSink totalQueueingTime:mean nan
attr interpolationmode none
attr title "the total time spent in queues by arrived jobs, mean"
attr unit s
scalar AFDXExampleNetwork.ECGC1_MON.trafficSink totalQueueingTime:max nan
attr interpolationmode none
attr title "the total time spent in queues by arrived jobs, max"
attr unit s
scalar AFDXExampleNetwork.ECGC1_MON.trafficSink lifeTime:mean nan
attr interpolationmode none
attr title "lifetime of arrived jobs, mean"
attr unit s
scalar AFDXExampleNetwork.ECGC1_MON.trafficSink lifeTime:max nan
attr interpolationmode none
attr title "lifetime of arrived jobs, max"
attr unit s
scalar AFDXExampleNetwork.ECGC1_MON.txQueueA "min length" nan
scalar AFDXExampleNetwork.ECGC1_MON.txQueueA "max length" nan
scalar AFDXExampleNetwork.ECGC1_MON.txQueueA "avg length" nan
scalar AFDXExampleNetwork.ECGC1_MON.txQueueA utilization nan
scalar AFDXExampleNetwork.ECGC1_MON.txQueueA "dropped jobs" 0
scalar AFDXExampleNetwork.ECGC1_MON.txQueueB "min length" 0
scalar AFDXExampleNetwork.ECGC1_MON.txQueueB "max length" 2
scalar AFDXExampleNetwork.ECGC1_MON.txQueueB "avg length" 0.00072343244037198
scalar AFDXExampleNetwork.ECGC1_MON.txQueueB utilization 0.0007160801275223
scalar AFDXExampleNetwork.ECGC1_MON.txQueueB "dropped jobs" 0
scalar AFDXExampleNetwork.ECGC1_MON.txQueueC "min length" nan
scalar AFDXExampleNetwork.ECGC1_MON.txQueueC "max length" nan
scalar AFDXExampleNetwork.ECGC1_MON.txQueueC "avg length" nan
scalar AFDXExampleNetwork.ECGC1_MON.txQueueC utilization nan
scalar AFDXExampleNetwork.ECGC1_MON.txQueueC "dropped jobs" 0
scalar AFDXExampleNetwork.ECGC1_MON.txQueueD "min length" nan
scalar AFDXExampleNetwork.ECGC1_MON.txQueueD "max length" nan
scalar AFDXExampleNetwork.ECGC1_MON.txQueueD "avg length" nan
scalar AFDXExampleNetwork.ECGC1_MON.txQueueD utilization nan
scalar AFDXExampleNetwork.ECGC1_MON.txQueueD "dropped jobs" 0
scalar AFDXExampleNetwork.ECGC1_MON.txQueueE "min length" nan
scalar AFDXExampleNetwork.ECGC1_MON.txQueueE "max length" nan
scalar AFDXExampleNetwork.ECGC1_MON.txQueueE "avg length" nan
scalar AFDXExampleNetwork.ECGC1_MON.txQueueE utilization nan
scalar AFDXExampleNetwork.ECGC1_MON.txQueueE "dropped jobs" 0
scalar AFDXExampleNetwork.ECGC1_MON.txQueueF "min length" nan
scalar AFDXExampleNetwork.ECGC1_MON.txQueueF "max length" nan
scalar AFDXExampleNetwork.ECGC1_MON.txQueueF "avg length" nan
scalar AFDXExampleNetwork.ECGC1_MON.txQueueF utilization nan
scalar AFDXExampleNetwork.ECGC1_MON.txQueueF "dropped jobs" 0
scalar AFDXExampleNetwork.ECGC1_MON.txQueueAA "min length" nan
scalar AFDXExampleNetwork.ECGC1_MON.txQueueAA "max length" nan
scalar AFDXExampleNetwork.ECGC1_MON.txQueueAA "avg length" nan
scalar AFDXExampleNetwork.ECGC1_MON.txQueueAA utilization nan
scalar AFDXExampleNetwork.ECGC1_MON.txQueueAA "dropped jobs" 0
scalar AFDXExampleNetwork.ECGC1_MON.txQueueH "min length" nan
scalar AFDXExampleNetwork.ECGC1_MON.txQueueH "max length" nan
scalar AFDXExampleNetwork.ECGC1_MON.txQueueH "avg length" nan
scalar AFDXExampleNetwork.ECGC1_MON.txQueueH utilization nan
scalar AFDXExampleNetwork.ECGC1_MON.txQueueH "dropped jobs" 0
scalar AFDXExampleNetwork.ECGC1_MON.txQueueI "min length" nan
scalar AFDXExampleNetwork.ECGC1_MON.txQueueI "max length" nan
scalar AFDXExampleNetwork.ECGC1_MON.txQueueI "avg length" nan
scalar AFDXExampleNetwork.ECGC1_MON.txQueueI utilization nan
scalar AFDXExampleNetwork.ECGC1_MON.txQueueI "dropped jobs" 0
scalar AFDXExampleNetwork.SECC2_COM.trafficSource1 "jobs created" 0
scalar AFDXExampleNetwork.SECC2_COM.trafficSink generation:mean nan
attr interpolationmode none
attr title "the generation of the arrived jobs, mean"
scalar AFDXExampleNetwork.SECC2_COM.trafficSink generation:max nan
attr interpolationmode none
attr title "the generation of the arrived jobs, max"
scalar AFDXExampleNetwork.SECC2_COM.trafficSink delaysVisited:mean nan
attr interpolationmode none
attr title "the total number of delays visited by arrived jobs, mean"
scalar AFDXExampleNetwork.SECC2_COM.trafficSink delaysVisited:max nan
attr interpolationmode none
attr title "the total number of delays visited by arrived jobs, max"
scalar AFDXExampleNetwork.SECC2_COM.trafficSink queuesVisited:mean nan
attr interpolationmode none
attr title "the total number of queues visited by arrived jobs, mean"
scalar AFDXExampleNetwork.SECC2_COM.trafficSink queuesVisited:max nan
attr interpolationmode none
attr title "the total number of queues visited by arrived jobs, max"
scalar AFDXExampleNetwork.SECC2_COM.trafficSink totalServiceTime:mean nan
attr interpolationmode none
attr title "the total time spent  by arrived jobs, mean"
attr unit s
scalar AFDXExampleNetwork.SECC2_COM.trafficSink totalServiceTime:max nan
attr interpolationmode none
attr title "the total time spent  by arrived jobs, max"
attr unit s
scalar AFDXExampleNetwork.SECC2_COM.trafficSink totalDelayTime:mean nan
attr interpolationmode none
attr title "the total time spent in delay nodes by arrived jobs, mean"
attr unit s
scalar AFDXExampleNetwork.SECC2_COM.trafficSink totalDelayTime:max nan
attr interpolationmode none
attr title "the total time spent in delay nodes by arrived jobs, max"
attr unit s
scalar AFDXExampleNetwork.SECC2_COM.trafficSink totalQueueingTime:mean nan
attr interpolationmode none
attr title "the total time spent in queues by arrived jobs, mean"
attr unit s
scalar AFDXExampleNetwork.SECC2_COM.trafficSink totalQueueingTime:max nan
attr interpolationmode none
attr title "the total time spent in queues by arrived jobs, max"
attr unit s
scalar AFDXExampleNetwork.SECC2_COM.trafficSink lifeTime:mean nan
attr interpolationmode none
attr title "lifetime of arrived jobs, mean"
attr unit s
scalar AFDXExampleNetwork.SECC2_COM.trafficSink lifeTime:max nan
attr interpolationmode none
attr title "lifetime of arrived jobs, max"
attr unit s
scalar AFDXExampleNetwork.SECC2_COM.txQueueA "min length" 0
scalar AFDXExampleNetwork.SECC2_COM.txQueueA "max length" 1
scalar AFDXExampleNetwork.SECC2_COM.txQueueA "avg length" 9.741230908305e-007
scalar AFDXExampleNetwork.SECC2_COM.txQueueA utilization 9.741230908305e-007
scalar AFDXExampleNetwork.SECC2_COM.txQueueA "dropped jobs" 0
scalar AFDXExampleNetwork.SECC2_COM.txQueueB "min length" nan
scalar AFDXExampleNetwork.SECC2_COM.txQueueB "max length" nan
scalar AFDXExampleNetwork.SECC2_COM.txQueueB "avg length" nan
scalar AFDXExampleNetwork.SECC2_COM.txQueueB utilization nan
scalar AFDXExampleNetwork.SECC2_COM.txQueueB "dropped jobs" 0
scalar AFDXExampleNetwork.SECC2_COM.txQueueC "min length" nan
scalar AFDXExampleNetwork.SECC2_COM.txQueueC "max length" nan
scalar AFDXExampleNetwork.SECC2_COM.txQueueC "avg length" nan
scalar AFDXExampleNetwork.SECC2_COM.txQueueC utilization nan
scalar AFDXExampleNetwork.SECC2_COM.txQueueC "dropped jobs" 0
scalar AFDXExampleNetwork.SECC2_COM.txQueueD "min length" nan
scalar AFDXExampleNetwork.SECC2_COM.txQueueD "max length" nan
scalar AFDXExampleNetwork.SECC2_COM.txQueueD "avg length" nan
scalar AFDXExampleNetwork.SECC2_COM.txQueueD utilization nan
scalar AFDXExampleNetwork.SECC2_COM.txQueueD "dropped jobs" 0
scalar AFDXExampleNetwork.SECC2_COM.txQueueE "min length" nan
scalar AFDXExampleNetwork.SECC2_COM.txQueueE "max length" nan
scalar AFDXExampleNetwork.SECC2_COM.txQueueE "avg length" nan
scalar AFDXExampleNetwork.SECC2_COM.txQueueE utilization nan
scalar AFDXExampleNetwork.SECC2_COM.txQueueE "dropped jobs" 0
scalar AFDXExampleNetwork.SECC2_COM.txQueueF "min length" nan
scalar AFDXExampleNetwork.SECC2_COM.txQueueF "max length" nan
scalar AFDXExampleNetwork.SECC2_COM.txQueueF "avg length" nan
scalar AFDXExampleNetwork.SECC2_COM.txQueueF utilization nan
scalar AFDXExampleNetwork.SECC2_COM.txQueueF "dropped jobs" 0
scalar AFDXExampleNetwork.SECC2_COM.txQueueAA "min length" nan
scalar AFDXExampleNetwork.SECC2_COM.txQueueAA "max length" nan
scalar AFDXExampleNetwork.SECC2_COM.txQueueAA "avg length" nan
scalar AFDXExampleNetwork.SECC2_COM.txQueueAA utilization nan
scalar AFDXExampleNetwork.SECC2_COM.txQueueAA "dropped jobs" 0
scalar AFDXExampleNetwork.SECC2_COM.txQueueH "min length" nan
scalar AFDXExampleNetwork.SECC2_COM.txQueueH "max length" nan
scalar AFDXExampleNetwork.SECC2_COM.txQueueH "avg length" nan
scalar AFDXExampleNetwork.SECC2_COM.txQueueH utilization nan
scalar AFDXExampleNetwork.SECC2_COM.txQueueH "dropped jobs" 0
scalar AFDXExampleNetwork.SECC2_COM.txQueueI "min length" nan
scalar AFDXExampleNetwork.SECC2_COM.txQueueI "max length" nan
scalar AFDXExampleNetwork.SECC2_COM.txQueueI "avg length" nan
scalar AFDXExampleNetwork.SECC2_COM.txQueueI utilization nan
scalar AFDXExampleNetwork.SECC2_COM.txQueueI "dropped jobs" 0
scalar AFDXExampleNetwork.SECC2_MON.trafficSource1 "jobs created" 0
scalar AFDXExampleNetwork.SECC2_MON.trafficSink generation:mean nan
attr interpolationmode none
attr title "the generation of the arrived jobs, mean"
scalar AFDXExampleNetwork.SECC2_MON.trafficSink generation:max nan
attr interpolationmode none
attr title "the generation of the arrived jobs, max"
scalar AFDXExampleNetwork.SECC2_MON.trafficSink delaysVisited:mean nan
attr interpolationmode none
attr title "the total number of delays visited by arrived jobs, mean"
scalar AFDXExampleNetwork.SECC2_MON.trafficSink delaysVisited:max nan
attr interpolationmode none
attr title "the total number of delays visited by arrived jobs, max"
scalar AFDXExampleNetwork.SECC2_MON.trafficSink queuesVisited:mean nan
attr interpolationmode none
attr title "the total number of queues visited by arrived jobs, mean"
scalar AFDXExampleNetwork.SECC2_MON.trafficSink queuesVisited:max nan
attr interpolationmode none
attr title "the total number of queues visited by arrived jobs, max"
scalar AFDXExampleNetwork.SECC2_MON.trafficSink totalServiceTime:mean nan
attr interpolationmode none
attr title "the total time spent  by arrived jobs, mean"
attr unit s
scalar AFDXExampleNetwork.SECC2_MON.trafficSink totalServiceTime:max nan
attr interpolationmode none
attr title "the total time spent  by arrived jobs, max"
attr unit s
scalar AFDXExampleNetwork.SECC2_MON.trafficSink totalDelayTime:mean nan
attr interpolationmode none
attr title "the total time spent in delay nodes by arrived jobs, mean"
attr unit s
scalar AFDXExampleNetwork.SECC2_MON.trafficSink totalDelayTime:max nan
attr interpolationmode none
attr title "the total time spent in delay nodes by arrived jobs, max"
attr unit s
scalar AFDXExampleNetwork.SECC2_MON.trafficSink totalQueueingTime:mean nan
attr interpolationmode none
attr title "the total time spent in queues by arrived jobs, mean"
attr unit s
scalar AFDXExampleNetwork.SECC2_MON.trafficSink totalQueueingTime:max nan
attr interpolationmode none
attr title "the total time spent in queues by arrived jobs, max"
attr unit s
scalar AFDXExampleNetwork.SECC2_MON.trafficSink lifeTime:mean nan
attr interpolationmode none
attr title "lifetime of arrived jobs, mean"
attr unit s
scalar AFDXExampleNetwork.SECC2_MON.trafficSink lifeTime:max nan
attr interpolationmode none
attr title "lifetime of arrived jobs, max"
attr unit s
scalar AFDXExampleNetwork.SECC2_MON.txQueueA "min length" 0
scalar AFDXExampleNetwork.SECC2_MON.txQueueA "max length" 1
scalar AFDXExampleNetwork.SECC2_MON.txQueueA "avg length" 7.7819806930741e-007
scalar AFDXExampleNetwork.SECC2_MON.txQueueA utilization 7.7819806930741e-007
[...]
scalar AFDXExampleNetwork.SPDB_1.trafficSink generation:max nan
attr interpolationmode none
attr title "the generation of the arrived jobs, max"
scalar AFDXExampleNetwork.SPDB_1.trafficSink delaysVisited:mean nan
attr interpolationmode none
attr title "the total number of delays visited by arrived jobs, mean"
scalar AFDXExampleNetwork.SPDB_1.trafficSink delaysVisited:max nan
attr interpolationmode none
attr title "the total number of delays visited by arrived jobs, max"
scalar AFDXExampleNetwork.SPDB_1.trafficSink queuesVisited:mean nan
attr interpolationmode none
attr title "the total number of queues visited by arrived jobs, mean"
scalar AFDXExampleNetwork.SPDB_1.trafficSink queuesVisited:max nan
attr interpolationmode none
attr title "the total number of queues visited by arrived jobs, max"
scalar AFDXExampleNetwork.SPDB_1.trafficSink totalServiceTime:mean nan
attr interpolationmode none
attr title "the total time spent  by arrived jobs, mean"
attr unit s
scalar AFDXExampleNetwork.SPDB_1.trafficSink totalServiceTime:max nan
attr interpolationmode none
attr title "the total time spent  by arrived jobs, max"
attr unit s
scalar AFDXExampleNetwork.SPDB_1.trafficSink totalDelayTime:mean nan
attr interpolationmode none
attr title "the total time spent in delay nodes by arrived jobs, mean"
attr unit s
scalar AFDXExampleNetwork.SPDB_1.trafficSink totalDelayTime:max nan
attr interpolationmode none
attr title "the total time spent in delay nodes by arrived jobs, max"
attr unit s
scalar AFDXExampleNetwork.SPDB_1.trafficSink totalQueueingTime:mean nan
attr interpolationmode none
attr title "the total time spent in queues by arrived jobs, mean"
attr unit s
scalar AFDXExampleNetwork.SPDB_1.trafficSink totalQueueingTime:max nan
attr interpolationmode none
attr title "the total time spent in queues by arrived jobs, max"
attr unit s
scalar AFDXExampleNetwork.SPDB_1.trafficSink lifeTime:mean nan
attr interpolationmode none
attr title "lifetime of arrived jobs, mean"
attr unit s
scalar AFDXExampleNetwork.SPDB_1.trafficSink lifeTime:max nan
attr interpolationmode none
attr title "lifetime of arrived jobs, max"
attr unit s
scalar AFDXExampleNetwork.SPDB_1.txQueueA "min length" 0
scalar AFDXExampleNetwork.SPDB_1.txQueueA "max length" 1
scalar AFDXExampleNetwork.SPDB_1.txQueueA "avg length" 4.5381059662168e-007
scalar AFDXExampleNetwork.SPDB_1.txQueueA utilization 4.5381059662168e-007
scalar AFDXExampleNetwork.SPDB_1.txQueueA "dropped jobs" 0
scalar AFDXExampleNetwork.SPDB_1.txQueueB "min length" 0
scalar AFDXExampleNetwork.SPDB_1.txQueueB "max length" 1
scalar AFDXExampleNetwork.SPDB_1.txQueueB "avg length" 4.5381059662168e-007
scalar AFDXExampleNetwork.SPDB_1.txQueueB utilization 4.5381059662168e-007
scalar AFDXExampleNetwork.SPDB_1.txQueueB "dropped jobs" 0
scalar AFDXExampleNetwork.SPDB_1.txQueueC "min length" nan
scalar AFDXExampleNetwork.SPDB_1.txQueueC "max length" nan
scalar AFDXExampleNetwork.SPDB_1.txQueueC "avg length" nan
scalar AFDXExampleNetwork.SPDB_1.txQueueC utilization nan
scalar AFDXExampleNetwork.SPDB_1.txQueueC "dropped jobs" 0
scalar AFDXExampleNetwork.SPDB_1.txQueueD "min length" nan
scalar AFDXExampleNetwork.SPDB_1.txQueueD "max length" nan
scalar AFDXExampleNetwork.SPDB_1.txQueueD "avg length" nan
scalar AFDXExampleNetwork.SPDB_1.txQueueD utilization nan
scalar AFDXExampleNetwork.SPDB_1.txQueueD "dropped jobs" 0
scalar AFDXExampleNetwork.SPDB_1.txQueueE "min length" nan
scalar AFDXExampleNetwork.SPDB_1.txQueueE "max length" nan
scalar AFDXExampleNetwork.SPDB_1.txQueueE "avg length" nan
scalar AFDXExampleNetwork.SPDB_1.txQueueE utilization nan
scalar AFDXExampleNetwork.SPDB_1.txQueueE "dropped jobs" 0
scalar AFDXExampleNetwork.SPDB_1.txQueueF "min length" nan
scalar AFDXExampleNetwork.SPDB_1.txQueueF "max length" nan
scalar AFDXExampleNetwork.SPDB_1.txQueueF "avg length" nan
scalar AFDXExampleNetwork.SPDB_1.txQueueF utilization nan
scalar AFDXExampleNetwork.SPDB_1.txQueueF "dropped jobs" 0
scalar AFDXExampleNetwork.SPDB_1.txQueueAA "min length" nan
scalar AFDXExampleNetwork.SPDB_1.txQueueAA "max length" nan
scalar AFDXExampleNetwork.SPDB_1.txQueueAA "avg length" nan
scalar AFDXExampleNetwork.SPDB_1.txQueueAA utilization nan
scalar AFDXExampleNetwork.SPDB_1.txQueueAA "dropped jobs" 0
scalar AFDXExampleNetwork.SPDB_1.txQueueH "min length" nan
scalar AFDXExampleNetwork.SPDB_1.txQueueH "max length" nan
scalar AFDXExampleNetwork.SPDB_1.txQueueH "avg length" nan
scalar AFDXExampleNetwork.SPDB_1.txQueueH utilization nan
scalar AFDXExampleNetwork.SPDB_1.txQueueH "dropped jobs" 0
scalar AFDXExampleNetwork.SPDB_1.txQueueI "min length" nan
scalar AFDXExampleNetwork.SPDB_1.txQueueI "max length" nan
scalar AFDXExampleNetwork.SPDB_1.txQueueI "avg length" nan
scalar AFDXExampleNetwork.SPDB_1.txQueueI utilization nan
scalar AFDXExampleNetwork.SPDB_1.txQueueI "dropped jobs" 0
scalar AFDXExampleNetwork.CPIOMB34.trafficSource1 "jobs created" 0
scalar AFDXExampleNetwork.CPIOMB34.trafficSink generation:mean nan
attr interpolationmode none
attr title "the generation of the arrived jobs, mean"
scalar AFDXExampleNetwork.CPIOMB34.trafficSink generation:max nan
attr interpolationmode none
attr title "the generation of the arrived jobs, max"
scalar AFDXExampleNetwork.CPIOMB34.trafficSink delaysVisited:mean nan
attr interpolationmode none
attr title "the total number of delays visited by arrived jobs, mean"
scalar AFDXExampleNetwork.CPIOMB34.trafficSink delaysVisited:max nan
attr interpolationmode none
attr title "the total number of delays visited by arrived jobs, max"
scalar AFDXExampleNetwork.CPIOMB34.trafficSink queuesVisited:mean nan
attr interpolationmode none
attr title "the total number of queues visited by arrived jobs, mean"
scalar AFDXExampleNetwork.CPIOMB34.trafficSink queuesVisited:max nan
attr interpolationmode none
attr title "the total number of queues visited by arrived jobs, max"
scalar AFDXExampleNetwork.CPIOMB34.trafficSink totalServiceTime:mean nan
attr interpolationmode none
attr title "the total time spent  by arrived jobs, mean"
attr unit s
scalar AFDXExampleNetwork.CPIOMB34.trafficSink totalServiceTime:max nan
attr interpolationmode none
attr title "the total time spent  by arrived jobs, max"
attr unit s
scalar AFDXExampleNetwork.CPIOMB34.trafficSink totalDelayTime:mean nan
attr interpolationmode none
attr title "the total time spent in delay nodes by arrived jobs, mean"
attr unit s
scalar AFDXExampleNetwork.CPIOMB34.trafficSink totalDelayTime:max nan
attr interpolationmode none
attr title "the total time spent in delay nodes by arrived jobs, max"
attr unit s
scalar AFDXExampleNetwork.CPIOMB34.trafficSink totalQueueingTime:mean nan
attr interpolationmode none
attr title "the total time spent in queues by arrived jobs, mean"
attr unit s
scalar AFDXExampleNetwork.CPIOMB34.trafficSink totalQueueingTime:max nan
attr interpolationmode none
attr title "the total time spent in queues by arrived jobs, max"
attr unit s
scalar AFDXExampleNetwork.CPIOMB34.trafficSink lifeTime:mean nan
attr interpolationmode none
attr title "lifetime of arrived jobs, mean"
attr unit s
scalar AFDXExampleNetwork.CPIOMB34.trafficSink lifeTime:max nan
attr interpolationmode none
attr title "lifetime of arrived jobs, max"
attr unit s
scalar AFDXExampleNetwork.CPIOMB34.txQueueA "min length" nan
scalar AFDXExampleNetwork.CPIOMB34.txQueueA "max length" nan
scalar AFDXExampleNetwork.CPIOMB34.txQueueA "avg length" nan
scalar AFDXExampleNetwork.CPIOMB34.txQueueA utilization nan
scalar AFDXExampleNetwork.CPIOMB34.txQueueA "dropped jobs" 0
scalar AFDXExampleNetwork.CPIOMB34.txQueueB "min length" nan
scalar AFDXExampleNetwork.CPIOMB34.txQueueB "max length" nan
scalar AFDXExampleNetwork.CPIOMB34.txQueueB "avg length" nan
scalar AFDXExampleNetwork.CPIOMB34.txQueueB utilization nan
scalar AFDXExampleNetwork.CPIOMB34.txQueueB "dropped jobs" 0
scalar AFDXExampleNetwork.CPIOMB34.txQueueC "min length" nan
scalar AFDXExampleNetwork.CPIOMB34.txQueueC "max length" nan
scalar AFDXExampleNetwork.CPIOMB34.txQueueC "avg length" nan
scalar AFDXExampleNetwork.CPIOMB34.txQueueC utilization nan
scalar AFDXExampleNetwork.CPIOMB34.txQueueC "dropped jobs" 0
scalar AFDXExampleNetwork.CPIOMB34.txQueueD "min length" nan
scalar AFDXExampleNetwork.CPIOMB34.txQueueD "max length" nan
scalar AFDXExampleNetwork.CPIOMB34.txQueueD "avg length" nan
scalar AFDXExampleNetwork.CPIOMB34.txQueueD utilization nan
scalar AFDXExampleNetwork.CPIOMB34.txQueueD "dropped jobs" 0
scalar AFDXExampleNetwork.CPIOMB34.txQueueE "min length" nan
scalar AFDXExampleNetwork.CPIOMB34.txQueueE "max length" nan
scalar AFDXExampleNetwork.CPIOMB34.txQueueE "avg length" nan
scalar AFDXExampleNetwork.CPIOMB34.txQueueE utilization nan
scalar AFDXExampleNetwork.CPIOMB34.txQueueE "dropped jobs" 0
scalar AFDXExampleNetwork.CPIOMB34.txQueueF "min length" nan
scalar AFDXExampleNetwork.CPIOMB34.txQueueF "max length" nan
scalar AFDXExampleNetwork.CPIOMB34.txQueueF "avg length" nan
scalar AFDXExampleNetwork.CPIOMB34.txQueueF utilization nan
scalar AFDXExampleNetwork.CPIOMB34.txQueueF "dropped jobs" 0
scalar AFDXExampleNetwork.CPIOMB34.txQueueAA "min length" nan
scalar AFDXExampleNetwork.CPIOMB34.txQueueAA "max length" nan
scalar AFDXExampleNetwork.CPIOMB34.txQueueAA "avg length" nan
scalar AFDXExampleNetwork.CPIOMB34.txQueueAA utilization nan
scalar AFDXExampleNetwork.CPIOMB34.txQueueAA "dropped jobs" 0
scalar AFDXExampleNetwork.CPIOMB34.txQueueH "min length" nan
scalar AFDXExampleNetwork.CPIOMB34.txQueueH "max length" nan
scalar AFDXExampleNetwork.CPIOMB34.txQueueH "avg length" nan
scalar AFDXExampleNetwork.CPIOMB34.txQueueH utilization nan
scalar AFDXExampleNetwork.CPIOMB34.txQueueH "dropped jobs" 0
scalar AFDXExampleNetwork.CPIOMB34.txQueueI "min length" nan
scalar AFDXExampleNetwork.CPIOMB34.txQueueI "max length" nan
scalar AFDXExampleNetwork.CPIOMB34.txQueueI "avg length" nan
scalar AFDXExampleNetwork.CPIOMB34.txQueueI utilization nan
scalar AFDXExampleNetwork.CPIOMB34.txQueueI "dropped jobs" 0
scalar AFDXExampleNetwork.CPIOMA34.trafficSource1 "jobs created" 0
scalar AFDXExampleNetwork.CPIOMA34.trafficSink generation:mean nan
attr interpolationmode none
attr title "the generation of the arrived jobs, mean"
scalar AFDXExampleNetwork.CPIOMA34.trafficSink generation:max nan
attr interpolationmode none
attr title "the generation of the arrived jobs, max"
scalar AFDXExampleNetwork.CPIOMA34.trafficSink delaysVisited:mean nan
attr interpolationmode none
attr title "the total number of delays visited by arrived jobs, mean"
scalar AFDXExampleNetwork.CPIOMA34.trafficSink delaysVisited:max nan
attr interpolationmode none
attr title "the total number of delays visited by arrived jobs, max"
scalar AFDXExampleNetwork.CPIOMA34.trafficSink queuesVisited:mean nan
attr interpolationmode none
attr title "the total number of queues visited by arrived jobs, mean"
scalar AFDXExampleNetwork.CPIOMA34.trafficSink queuesVisited:max nan
attr interpolationmode none
attr title "the total number of queues visited by arrived jobs, max"
scalar AFDXExampleNetwork.CPIOMA34.trafficSink totalServiceTime:mean nan
attr interpolationmode none
attr title "the total time spent  by arrived jobs, mean"
attr unit s
scalar AFDXExampleNetwork.CPIOMA34.trafficSink totalServiceTime:max nan
attr interpolationmode none
attr title "the total time spent  by arrived jobs, max"
attr unit s
scalar AFDXExampleNetwork.CPIOMA34.trafficSink totalDelayTime:mean nan
attr interpolationmode none
attr title "the total time spent in delay nodes by arrived jobs, mean"
attr unit s
scalar AFDXExampleNetwork.CPIOMA34.trafficSink totalDelayTime:max nan
attr interpolationmode none
attr title "the total time spent in delay nodes by arrived jobs, max"
attr unit s
scalar AFDXExampleNetwork.CPIOMA34.trafficSink totalQueueingTime:mean nan
attr interpolationmode none
attr title "the total time spent in queues by arrived jobs, mean"
attr unit s
scalar AFDXExampleNetwork.CPIOMA34.trafficSink totalQueueingTime:max nan
attr interpolationmode none
attr title "the total time spent in queues by arrived jobs, max"
attr unit s
scalar AFDXExampleNetwork.CPIOMA34.trafficSink lifeTime:mean nan
attr interpolationmode none
attr title "lifetime of arrived jobs, mean"
attr unit s
scalar AFDXExampleNetwork.CPIOMA34.trafficSink lifeTime:max nan
attr interpolationmode none
attr title "lifetime of arrived jobs, max"
attr unit s
scalar AFDXExampleNetwork.CPIOMA34.txQueueA "min length" nan
scalar AFDXExampleNetwork.CPIOMA34.txQueueA "max length" nan
scalar AFDXExampleNetwork.CPIOMA34.txQueueA "avg length" nan
scalar AFDXExampleNetwork.CPIOMA34.txQueueA utilization nan
scalar AFDXExampleNetwork.CPIOMA34.txQueueA "dropped jobs" 0
scalar AFDXExampleNetwork.CPIOMA34.txQueueB "min length" nan
scalar AFDXExampleNetwork.CPIOMA34.txQueueB "max length" nan
scalar AFDXExampleNetwork.CPIOMA34.txQueueB "avg length" nan
scalar AFDXExampleNetwork.CPIOMA34.txQueueB utilization nan
scalar AFDXExampleNetwork.CPIOMA34.txQueueB "dropped jobs" 0
scalar AFDXExampleNetwork.CPIOMA34.txQueueC "min length" nan
scalar AFDXExampleNetwork.CPIOMA34.txQueueC "max length" nan
scalar AFDXExampleNetwork.CPIOMA34.txQueueC "avg length" nan
scalar AFDXExampleNetwork.CPIOMA34.txQueueC utilization nan
scalar AFDXExampleNetwork.CPIOMA34.txQueueC "dropped jobs" 0
scalar AFDXExampleNetwork.CPIOMA34.txQueueD "min length" nan
scalar AFDXExampleNetwork.CPIOMA34.txQueueD "max length" nan
scalar AFDXExampleNetwork.CPIOMA34.txQueueD "avg length" nan
scalar AFDXExampleNetwork.CPIOMA34.txQueueD utilization nan
scalar AFDXExampleNetwork.CPIOMA34.txQueueD "dropped jobs" 0
scalar AFDXExampleNetwork.CPIOMA34.txQueueE "min length" nan
scalar AFDXExampleNetwork.CPIOMA34.txQueueE "max length" nan
scalar AFDXExampleNetwork.CPIOMA34.txQueueE "avg length" nan
scalar AFDXExampleNetwork.CPIOMA34.txQueueE utilization nan
scalar AFDXExampleNetwork.CPIOMA34.txQueueE "dropped jobs" 0
scalar AFDXExampleNetwork.CPIOMA34.txQueueF "min length" nan
scalar AFDXExampleNetwork.CPIOMA34.txQueueF "max length" nan
scalar AFDXExampleNetwork.CPIOMA34.txQueueF "avg length" nan
scalar AFDXExampleNetwork.CPIOMA34.txQueueF utilization nan
scalar AFDXExampleNetwork.CPIOMA34.txQueueF "dropped jobs" 0
scalar AFDXExampleNetwork.CPIOMA34.txQueueAA "min length" nan
scalar AFDXExampleNetwork.CPIOMA34.txQueueAA "max length" nan
scalar AFDXExampleNetwork.CPIOMA34.txQueueAA "avg length" nan
scalar AFDXExampleNetwork.CPIOMA34.txQueueAA utilization nan
scalar AFDXExampleNetwork.CPIOMA34.txQueueAA "dropped jobs" 0
scalar AFDXExampleNetwork.CPIOMA34.txQueueH "min length" nan
scalar AFDXExampleNetwork.CPIOMA34.txQueueH "max length" nan
scalar AFDXExampleNetwork.CPIOMA34.txQueueH "avg length" nan
scalar AFDXExampleNetwork.CPIOMA34.txQueueH utilization nan
scalar AFDXExampleNetwork.CPIOMA34.txQueueH "dropped jobs" 0
scalar AFDXExampleNetwork.CPIOMA34.txQueueI "min length" nan
scalar AFDXExampleNetwork.CPIOMA34.txQueueI "max length" nan
scalar AFDXExampleNetwork.CPIOMA34.txQueueI "avg length" nan
scalar AFDXExampleNetwork.CPIOMA34.txQueueI utilization nan
scalar AFDXExampleNetwork.CPIOMA34.txQueueI "dropped jobs" 0
scalar AFDXExampleNetwork.DSMC.trafficSource1 "jobs created" 0
scalar AFDXExampleNetwork.DSMC.trafficSink generation:mean nan
attr interpolationmode none
attr title "the generation of the arrived jobs, mean"
scalar AFDXExampleNetwork.DSMC.trafficSink generation:max nan
attr interpolationmode none
attr title "the generation of the arrived jobs, max"
scalar AFDXExampleNetwork.DSMC.trafficSink delaysVisited:mean nan
attr interpolationmode none
attr title "the total number of delays visited by arrived jobs, mean"
scalar AFDXExampleNetwork.DSMC.trafficSink delaysVisited:max nan
attr interpolationmode none
attr title "the total number of delays visited by arrived jobs, max"
scalar AFDXExampleNetwork.DSMC.trafficSink queuesVisited:mean nan
attr interpolationmode none
attr title "the total number of queues visited by arrived jobs, mean"
scalar AFDXExampleNetwork.DSMC.trafficSink queuesVisited:max nan
attr interpolationmode none
attr title "the total number of queues visited by arrived jobs, max"
scalar AFDXExampleNetwork.DSMC.trafficSink totalServiceTime:mean nan
attr interpolationmode none
attr title "the total time spent  by arrived jobs, mean"
attr unit s
scalar AFDXExampleNetwork.DSMC.trafficSink totalServiceTime:max nan
attr interpolationmode none
attr title "the total time spent  by arrived jobs, max"
attr unit s
scalar AFDXExampleNetwork.DSMC.trafficSink totalDelayTime:mean nan
attr interpolationmode none
attr title "the total time spent in delay nodes by arrived jobs, mean"
attr unit s
scalar AFDXExampleNetwork.DSMC.trafficSink totalDelayTime:max nan
attr interpolationmode none
attr title "the total time spent in delay nodes by arrived jobs, max"
attr unit s
scalar AFDXExampleNetwork.DSMC.trafficSink totalQueueingTime:mean nan
attr interpolationmode none
attr title "the total time spent in queues by arrived jobs, mean"
attr unit s
scalar AFDXExampleNetwork.DSMC.trafficSink totalQueueingTime:max nan
attr interpolationmode none
attr title "the total time spent in queues by arrived jobs, max"
attr unit s
scalar AFDXExampleNetwork.DSMC.trafficSink lifeTime:mean nan
attr interpolationmode none
attr title "lifetime of arrived jobs, mean"
attr unit s
scalar AFDXExampleNetwork.DSMC.trafficSink lifeTime:max nan
attr interpolationmode none
attr title "lifetime of arrived jobs, max"
attr unit s
scalar AFDXExampleNetwork.DSMC.txQueueA "min length" nan
scalar AFDXExampleNetwork.DSMC.txQueueA "max length" nan
scalar AFDXExampleNetwork.DSMC.txQueueA "avg length" nan
scalar AFDXExampleNetwork.DSMC.txQueueA utilization nan
scalar AFDXExampleNetwork.DSMC.txQueueA "dropped jobs" 0
scalar AFDXExampleNetwork.DSMC.txQueueB "min length" nan
scalar AFDXExampleNetwork.DSMC.txQueueB "max length" nan
scalar AFDXExampleNetwork.DSMC.txQueueB "avg length" nan
scalar AFDXExampleNetwork.DSMC.txQueueB utilization nan
scalar AFDXExampleNetwork.DSMC.txQueueB "dropped jobs" 0
scalar AFDXExampleNetwork.DSMC.txQueueC "min length" nan
scalar AFDXExampleNetwork.DSMC.txQueueC "max length" nan
scalar AFDXExampleNetwork.DSMC.txQueueC "avg length" nan
scalar AFDXExampleNetwork.DSMC.txQueueC utilization nan
scalar AFDXExampleNetwork.DSMC.txQueueC "dropped jobs" 0
scalar AFDXExampleNetwork.DSMC.txQueueD "min length" nan
scalar AFDXExampleNetwork.DSMC.txQueueD "max length" nan
scalar AFDXExampleNetwork.DSMC.txQueueD "avg length" nan
scalar AFDXExampleNetwork.DSMC.txQueueD utilization nan
scalar AFDXExampleNetwork.DSMC.txQueueD "dropped jobs" 0
scalar AFDXExampleNetwork.DSMC.txQueueE "min length" nan
scalar AFDXExampleNetwork.DSMC.txQueueE "max length" nan
scalar AFDXExampleNetwork.DSMC.txQueueE "avg length" nan
scalar AFDXExampleNetwork.DSMC.txQueueE utilization nan
scalar AFDXExampleNetwork.DSMC.txQueueE "dropped jobs" 0
scalar AFDXExampleNetwork.DSMC.txQueueF "min length" nan
scalar AFDXExampleNetwork.DSMC.txQueueF "max length" nan
scalar AFDXExampleNetwork.DSMC.txQueueF "avg length" nan
scalar AFDXExampleNetwork.DSMC.txQueueF utilization nan
scalar AFDXExampleNetwork.DSMC.txQueueF "dropped jobs" 0
scalar AFDXExampleNetwork.DSMC.txQueueAA "min length" nan
scalar AFDXExampleNetwork.DSMC.txQueueAA "max length" nan
scalar AFDXExampleNetwork.DSMC.txQueueAA "avg length" nan
scalar AFDXExampleNetwork.DSMC.txQueueAA utilization nan
scalar AFDXExampleNetwork.DSMC.txQueueAA "dropped jobs" 0
scalar AFDXExampleNetwork.DSMC.txQueueH "min length" nan
scalar AFDXExampleNetwork.DSMC.txQueueH "max length" nan
scalar AFDXExampleNetwork.DSMC.txQueueH "avg length" nan
scalar AFDXExampleNetwork.DSMC.txQueueH utilization nan
scalar AFDXExampleNetwork.DSMC.txQueueH "dropped jobs" 0
scalar AFDXExampleNetwork.DSMC.txQueueI "min length" nan
scalar AFDXExampleNetwork.DSMC.txQueueI "max length" nan
scalar AFDXExampleNetwork.DSMC.txQueueI "avg length" nan
scalar AFDXExampleNetwork.DSMC.txQueueI utilization nan
scalar AFDXExampleNetwork.DSMC.txQueueI "dropped jobs" 0

