file 647954292 1722241257                                       
version 2
run General-0-20240729-11:15:50-2736
attr configname General
attr datetime 20240729-11:15:50
attr experiment General
attr inifile omnetpp.ini
attr iterationvars ""
attr iterationvarsf ""
attr measurement ""
attr network AFDXExampleNetwork
attr processid 2736
attr repetition 0
attr replication #0
attr resultdir results
attr runnumber 0
attr seedset 0
param **.scheduler.serviceTime 0s
param **.trafficSource1.interArrivalTime exponential(100s)
param **.trafficSource1.networkId 0
param **.trafficSource1.equipmentId 0
param **.trafficSource1.interfaceId 0
param **.trafficSource1.virtualLinkId "intuniform(0, 3)"
param **.trafficSource1.seqNum 0
param **.trafficSource1.partitionId 0
param **.trafficSource1.udpSrcPort 1234
param **.trafficSource1.udpDestPort 5678
param **.trafficSource1.jobKind trafficSource1.virtualLinkId
param **.trafficSource1.jobPriority "intuniform(0, 1)"
param **.ethSpeed 100Mbps
param **.utilizationTracker.noOfPorts 24
param **.utilizationTracker.ethSpeed 100
param *.S1.switchFabric.router.configTableName "\"Switch1.txt\""
param *.S_1.switchFabric.router.configTableName "\"Switch_1.txt\""
param *.S__1.switchFabric.router.configTableName "\"Switch__1.txt\""
param *.S_2.switchFabric.router.configTableName "\"Switch2.txt\""
param *.S_3.switchFabric.router.configTableName "\"Switch_3.txt\""
param *.S_4.switchFabric.router.configTableName "\"Switch_4.txt\""
param *.S2.switchFabric.router.configTableName "\"Switch2.txt\""
param *.S3.switchFabric.router.configTableName "\"Switch3.txt\""
param *.S4.switchFabric.router.configTableName "\"Switch4.txt\""
param **.S111.failureStartTime 10s
param **.S111.recoveryStartTime 30s
param **.S1.failureStartTime 10s
param **.S1.recoveryStartTime 30s
param **.S11.failureStartTime 10s
param **.S11.recoveryStartTime 30s

vector 0 AFDXExampleNetwork.EEC2A.txQueueA length ETV
0	16076 43138 4 2322657 0.000040436798 1.538890556048 1575 0 1 22 22
0	15227989 43344 2324917 4643754 1.540427538983 3.079355812355 1554 0 1 21 21
0	30689811 42835 4646903 6966214 3.081331116222 4.612256775086 1536 0 2 22 24
0	46151584 42707 6968805 9288791 4.614082648919 6.155472717161 1532 0 1 16 16
0	61613142 43997 9291782 11611646 6.157101209707 7.703072169831 1539 0 1 9 9
0	77438317 45727 11613475 13929985 7.704173842963 9.242194694811 1583 0 2 18 20
0	93428309 7022 13931804 14291592 9.243579556703 9.481896351487 243 0 1 3 3
0	95908527 46380 14294456 16611141 9.483423705604 11.01713405236 1570 0 1 18 18
0	112244382 47579 16612966 18938965 11.018343779809 12.570439119036 1592 0 1 19 19
0	128750544 46703 18941977 21261697 12.572164666526 14.107887268867 1563 0 1 13 13
0	145260606 46339 21264132 23588766 14.109488474771 15.654543840884 1551 0 1 13 13
0	161765100 46739 23590578 25910535 15.655982736659 17.198154125054 1563 0 1 17 17
0	178273067 46709 25913610 28235819 17.200116618233 18.748335130491 1562 0 1 16 16
0	194779530 45795 28237852 30560767 18.749723219206 20.289382142676 1533 0 1 9 9
0	211286873 46733 30563138 32887869 20.290979225269 21.83666838377 1564 0 1 18 18
0	227791783 46343 32890301 35213291 21.838070140949 23.382189209381 1550 0 1 12 12
0	244299829 47326 35216079 37539003 23.383939944424 24.932999822622 1583 0 1 18 18
0	260804502 47063 37541705 39861722 24.934776339166 26.466136332191 1575 0 1 21 21
0	277316265 46503 39863932 42186008 26.467595289739 28.003963827344 1557 0 1 13 13
0	293823763 47693 42188741 44512125 28.005747149348 29.550793515666 1596 0 1 17 17
0	310329659 45759 44513461 46836927 29.551585574188 31.099368277768 1531 0 1 16 16
0	326839122 46798 46837147 49157974 31.099436112435 32.632779733876 1566 0 2 25 27
0	343346921 47341 49159840 51477297 32.63386660314 34.167879347745 1584 0 1 23 23
0	359856998 47319 51481275 53804337 34.169833739851 35.710265450363 1583 0 1 16 16
0	376362733 47431 53805511 56125759 35.711213881333 37.256887696045 1587 0 1 20 20
0	392873247 47911 56128553 58453118 37.258645197352 38.801865707551 1603 0 2 22 24
0	409379298 46610 58453832 60772542 38.802356235306 40.336365227263 1559 0 1 20 20
0	425890950 46531 60774937 63098845 40.338103263637 41.884327866774 1557 0 1 17 17
0	442397092 47191 63098932 65421238 41.884456757222 43.424958142014 1579 0 1 19 19
0	458906193 47002 65423723 67745303 43.426489552345 44.975878610467 1573 0 1 22 22
0	475412997 47696 67748200 70071301 44.977858364146 46.524338805164 1595 0 1 13 13
0	491917602 47027 70073237 72393317 46.525831304963 48.060622896194 1573 0 1 18 18
0	508428035 46753 72395252 74715042 48.061842371299 49.597774976399 1564 0 1 26 26
0	524936217 47109 74717921 77038481 49.599731472018 51.14040644895 1577 0 1 15 15
0	541444519 46202 77041363 79361735 51.142343656328 52.672588095756 1546 0 1 23 23
0	557953988 46010 79363299 81686071 52.673782888192 54.221680470947 1540 0 1 9 9
0	574463399 45224 81687716 84010218 54.222844241301 55.756388486877 1513 0 1 14 14
0	590970881 47090 84011378 86335144 55.757295779847 57.298208750681 1575 0 1 16 16
0	607476485 45889 86336922 88659137 57.299377055437 58.848582129368 1536 0 2 18 20
0	623983143 47520 88661741 90985954 58.8499822921 60.396415725033 1590 0 1 16 16
0	640488971 20468 90988111 92034735 60.397811294247 61.088777612389 685 0 2 9 11
vector 1 AFDXExampleNetwork.EEC2A.txQueueB length ETV
1	59214 42534 5 2322658 0.000040436798 1.538890556048 1553 0 0 0 0
1	15271333 42757 2324918 4643755 1.540427538983 3.079355812355 1533 0 0 0 0
1	30732646 42278 4646904 6966215 3.081331116222 4.612256775086 1516 0 0 0 0
1	46194291 42259 6968806 9288792 4.614082648919 6.155472717161 1516 0 0 0 0
1	61657139 43740 9291783 11611647 6.157101209707 7.703072169831 1530 0 0 0 0
1	77484044 45264 11613476 13929986 7.704173842963 9.242194694811 1567 0 0 0 0
1	93435331 6935 13931805 14291593 9.243579556703 9.481896351487 240 0 0 0 0
1	95954907 45852 14294457 16611142 9.483423705604 11.01713405236 1552 0 0 0 0
1	112291961 47010 16612967 18938966 11.018343779809 12.570439119036 1573 0 0 0 0
1	128797247 46314 18941978 21261698 12.572164666526 14.107887268867 1550 0 0 0 0
1	145306945 45950 21264133 23588767 14.109488474771 15.654543840884 1538 0 0 0 0
1	161811839 46231 23590579 25910536 15.655982736659 17.198154125054 1546 0 0 0 0
1	178319776 46230 25913611 28235820 17.200116618233 18.748335130491 1546 0 0 0 0
1	194825325 45526 28237853 30560768 18.749723219206 20.289382142676 1524 0 0 0 0
1	211333606 46194 30563139 32887870 20.290979225269 21.83666838377 1546 0 0 0 0
1	227838126 45984 32890302 35213292 21.838070140949 23.382189209381 1538 0 0 0 0
1	244347155 46789 35216080 37539004 23.383939944424 24.932999822622 1565 0 0 0 0
1	260851565 46434 37541706 39861723 24.934776339166 26.466136332191 1554 0 0 0 0
1	277362768 46116 39863933 42186009 26.467595289739 28.003963827344 1544 0 0 0 0
1	293871456 47188 42188742 44512126 28.005747149348 29.550793515666 1579 0 0 0 0
1	310375418 45279 44513462 46836928 29.551585574188 31.099368277768 1515 0 0 0 0
1	326885920 46113 46837148 49157975 31.099436112435 32.632779733876 1543 0 0 0 0
1	343394262 46655 49159841 51477298 32.63386660314 34.167879347745 1561 0 0 0 0
1	359904317 46841 51481276 53804338 34.169833739851 35.710265450363 1567 0 0 0 0
1	376410164 46832 53805512 56125760 35.711213881333 37.256887696045 1567 0 0 0 0
1	392921158 47314 56128554 58453119 37.258645197352 38.801865707551 1583 0 0 0 0
1	409425908 46013 58453833 60772543 38.802356235306 40.336365227263 1539 0 0 0 0
1	425937481 46023 60774938 63098846 40.338103263637 41.884327866774 1540 0 0 0 0
1	442444283 46626 63098933 65421239 41.884456757222 43.424958142014 1560 0 0 0 0
1	458953195 46343 65423724 67745304 43.426489552345 44.975878610467 1551 0 0 0 0
1	475460693 47307 67748201 70071302 44.977858364146 46.524338805164 1582 0 0 0 0
1	491964629 46488 70073238 72393318 46.525831304963 48.060622896194 1555 0 0 0 0
1	508474788 45976 72395253 74715043 48.061842371299 49.597774976399 1538 0 0 0 0
1	524983326 46661 74717922 77038482 49.599731472018 51.14040644895 1562 0 0 0 0
1	541490721 45513 77041364 79361736 51.142343656328 52.672588095756 1523 0 0 0 0
1	557999998 45740 79363300 81686072 52.673782888192 54.221680470947 1531 0 0 0 0
1	574508623 44805 81687717 84010219 54.222844241301 55.756388486877 1499 0 0 0 0
1	591017971 46613 84011379 86335145 55.757295779847 57.298208750681 1559 0 0 0 0
1	607522374 45412 86336923 88659138 57.299377055437 58.848582129368 1520 0 0 0 0
1	624030663 47042 88661742 90985955 58.8499822921 60.396415725033 1574 0 0 0 0
1	640509439 20258 90988112 92034736 60.397811294247 61.088777612389 678 0 0 0 0
vector 2 AFDXExampleNetwork.S2.switchFabric.lowQueue length ETV
2	101748 197358 13 2323490 0.000061556873 1.539491923632 7200 0 1 1136 1136
2	15314090 199809 2323508 4643771 1.539498643632 3.07937693243 7166 0 1 1165 1165
2	30774924 200328 4645311 6966230 3.080436293451 4.612277895161 7184 0 1 1138 1138
2	46236550 192935 6966356 9287677 4.612381909981 6.154442201407 6916 0 1 1108 1108
2	61700879 201937 9289598 11612622 6.155765419359 7.703698892629 7064 0 1 1142 1142
2	77529308 211949 11613192 13930608 7.703938694079 9.242587169467 7338 0 1 1185 1185
2	93442266 32592 13931046 14292618 9.243007158658 9.482307542941 1128 0 1 178 178
2	96000759 212013 14293136 16610859 9.4826783452 11.016893902589 7169 0 1 1137 1137
2	112338971 206926 16614529 18939920 11.019335356864 12.570944597583 6921 0 1 1116 1116
2	128843561 215942 18940377 21263412 12.571182345388 14.108965847485 7227 0 1 1144 1144
2	145352895 216195 21264558 23589570 14.10974453849 15.655115211904 7234 0 1 1169 1169
2	161858070 209812 23590175 25912717 15.655580536445 17.199481438478 7018 0 1 1115 1115
2	178366006 214015 25913627 28237388 17.200137738308 18.749475512615 7158 0 1 1155 1155
2	194870851 212707 28239855 30562227 18.750913173329 20.29025259473 7116 0 1 1125 1125
2	211379800 214509 30562608 32888091 20.290557910941 21.836798397089 7174 0 1 1147 1147
2	227884110 207703 32889430 35213926 21.837660392637 23.382624155083 6948 0 1 1115 1115
2	244393944 213657 35214252 37539881 23.382855532573 24.933528573361 7150 0 1 1148 1148
2	260897999 212164 37541763 39861764 24.934797459241 26.466157452266 7097 0 1 1139 1139
2	277408884 215337 39864691 42186852 26.46821697762 28.004620896435 7206 0 1 1183 1183
2	293918644 220880 42188754 44512552 28.005768269423 29.551065263631 7391 0 1 1172 1172
2	310420697 211655 44513470 46835401 29.551606694263 31.098256936836 7082 0 1 1170 1170
2	326932033 215036 46836989 49158498 31.099389397843 32.633213988018 7195 0 1 1166 1166
2	343440917 218606 49159269 51480593 32.633558811378 34.169588415878 7313 0 1 1170 1170
2	359951158 212275 51481313 53803332 34.169854859926 35.709479728227 7101 0 1 1146 1146
2	376456996 216640 53805419 56127758 35.711116743252 37.258105061865 7249 0 1 1183 1183
2	392968472 215414 56127865 58453201 37.258223457152 38.801886827626 7207 0 1 1192 1192
2	409471921 210771 58453373 60774507 38.802016849303 40.337792713838 7052 0 1 1142 1142
2	425983504 218861 60775959 63098854 40.338679493782 41.884348986849 7321 0 1 1189 1189
2	442490909 212088 63098947 65422626 41.884477877297 43.4256745504 7095 0 1 1143 1143
2	458999538 216755 65422953 67746680 43.425827232078 44.976921487451 7253 0 1 1190 1190
2	475508000 219864 67746682 70072468 44.976921487451 46.525133377492 7355 0 1 1196 1196
2	492011117 213164 70073368 72394417 46.525899697058 48.061203025324 7134 0 1 1140 1140
2	508520764 216615 72394993 74715642 48.06161828134 49.598218932393 7248 0 1 1185 1185
2	525029987 214754 74716103 77039669 49.598475232422 51.141261556377 7182 0 1 1186 1186
2	541536234 216392 77039907 79362733 51.141347007178 52.673292264395 7238 0 1 1178 1178
2	558045738 211385 79363169 81686618 52.673619849911 54.221966699767 7073 0 1 1151 1151
2	574553428 211997 81688343 84010087 54.223139128528 55.756322004813 7094 0 1 1159 1159
2	591064584 218091 84011403 86335859 55.757316899922 57.298661252662 7298 0 1 1185 1185
2	607567786 210479 86335908 88658703 57.298667972662 58.84813814394 7042 0 1 1158 1158
2	624077705 211495 88661070 90985976 58.849633279457 60.396436845108 7076 0 1 1109 1109
2	640529697 96488 90986511 92035287 60.396728659124 61.089240107651 3229 0 1 529 529
vector 3 AFDXExampleNetwork.S2.switchPort[1].txQueue length ETV
3	299106 143916 17 2322969 0.000061556873 1.539112804507 5251 0 4 1315 1455
3	15513899 153577 2323863 4644457 1.539678547307 3.079765928966 5506 0 2 1391 1489
3	30975252 153543 4645751 6965792 3.080681385424 4.611816838964 5505 0 3 1423 1545
3	46429485 152914 6967208 9287703 4.613096270645 6.154454041407 5482 0 2 1390 1500
3	61902816 151837 9289726 11611742 6.155800763584 7.703131897414 5313 0 3 1373 1511
3	77741257 159121 11613558 13929418 7.704237004843 9.241629310339 5509 0 3 1470 1628
3	93474858 23437 13931833 14292676 9.243600676778 9.482319382941 812 0 2 200 218
3	96212772 154646 14293492 16612220 9.482836166189 11.017829710332 5233 0 2 1323 1439
3	112545897 165791 16613000 18939820 11.018364899884 12.570894934824 5547 0 4 1454 1616
3	129059503 156995 18941281 21262523 12.571793767781 14.108198803789 5253 0 3 1274 1380
3	145569090 164886 21263947 23589292 14.109258350497 15.655034105767 5518 0 2 1421 1553
3	162067882 161646 23590247 25912726 15.655712705185 17.199481438478 5409 0 3 1373 1495
3	178580021 163049 25912777 28237392 17.199493278478 18.749475512615 5454 0 3 1392 1528
3	195083558 161376 28237873 30561217 18.749724412941 20.28956546128 5401 0 2 1334 1426
3	211594309 165707 30562614 32888183 20.290557910941 21.836842790768 5541 0 3 1388 1490
3	228091813 168446 32889573 35213930 21.837718952238 23.382624155083 5637 0 2 1460 1586
3	244607601 163190 35214465 37540024 23.383045710071 24.933587885187 5461 0 2 1401 1535
3	261110163 162127 37541875 39861768 24.934888249685 26.466157452266 5426 0 3 1348 1466
3	277624221 162178 39863771 42186908 26.467545093908 28.004640853752 5427 0 4 1420 1588
3	294139524 161486 42189328 44512598 28.006274953241 29.551077103631 5403 0 2 1363 1475
3	310632352 160816 44513474 46835495 29.551606694263 31.098338791414 5382 0 3 1369 1507
3	327147069 164205 46837205 49157993 31.09945723251 32.632800853951 5493 0 3 1374 1490
3	343659523 160880 49159156 51480926 32.633545294333 34.169665263672 5382 0 3 1355 1493
3	360163433 167025 51481317 53804358 34.169854859926 35.710286570438 5588 0 3 1432 1560
3	376673636 161812 53805147 56125891 35.71095829205 37.256994485585 5415 0 4 1359 1505
3	393183886 160606 56127871 58453205 37.258223457152 38.801886827626 5373 0 2 1332 1430
3	409682692 161729 58453379 60772776 38.802016849303 40.33658189714 5413 0 2 1362 1462
3	426202365 161664 60777187 63098858 40.339342303295 41.884348986849 5408 0 3 1383 1511
3	442702997 162040 63100608 65420180 41.885829976093 43.424388340439 5420 0 2 1354 1464
3	459216293 162115 65423670 67746643 43.426478449582 44.976912973486 5423 0 3 1391 1527
3	475727864 165447 67746685 70072943 44.976921487451 46.525589181779 5534 0 3 1392 1520
3	492224281 164176 70074476 72394421 46.526675573952 48.061203025324 5494 0 3 1425 1565
3	508737379 161475 72394999 74715445 48.06161828134 49.598010518641 5403 0 2 1348 1444
3	525244741 169998 74716265 77038502 49.598579430645 51.140427569025 5688 0 3 1459 1609
3	541752626 161075 77042765 79362737 51.143263969034 52.673292264395 5388 0 4 1368 1504
3	558257123 159378 79363173 81686095 52.673619849911 54.221701591022 5333 0 3 1291 1375
3	574765425 164479 81687705 84010250 54.22283315507 55.756409606952 5502 0 3 1425 1559
3	591282675 164918 84011185 86335201 55.757173889463 57.298235062628 5520 0 2 1382 1484
3	607778265 160740 86336829 88659250 57.299270886956 58.848603249443 5379 0 3 1381 1517
3	624289200 160279 88661125 90985375 58.849656423868 60.39588752542 5362 0 2 1312 1400
3	640626185 78012 90986517 92033876 60.396728659124 61.088274544488 2610 0 2 659 705
vector 4 AFDXExampleNetwork.S2.switchPort[3].txQueue length ETV
4	443022 72529 18 2322970 0.000061556873 1.539112804507 2649 0 2 629 669
4	15667476 77360 2326267 4643161 1.54148061541 3.078882362868 2773 0 2 670 698
4	31128795 75844 4645752 6964146 3.080681385424 4.610829391777 2720 0 2 663 695
4	46582399 74817 6967209 9287704 4.613096270645 6.154454041407 2681 0 2 624 654
4	62054653 74345 9289727 11611685 6.155800763584 7.703093289906 2602 0 2 623 659
4	77900378 79930 11615622 13927457 7.705725543462 9.240345225986 2768 0 2 685 733
4	93498295 11069 13933267 14292677 9.244629115924 9.482319382941 384 0 2 76 78
4	96367418 75199 14293493 16610289 9.482836166189 11.016436313803 2544 0 2 595 621
4	112711688 80334 16616084 18939821 11.020359578528 12.570894934824 2688 0 2 640 670
4	129216498 76841 18941282 21261036 12.571793767781 14.107525909134 2571 0 2 585 609
4	145733976 82238 21264165 23589293 14.109509594846 15.655034105767 2752 0 2 675 715
4	162229528 78949 23591447 25912727 15.656555362216 17.199481438478 2641 0 3 633 679
4	178743070 82841 25912778 28235868 17.199493278478 18.748356250566 2771 0 2 668 702
4	195244934 79706 28241137 30560810 18.751912163194 20.289403262751 2667 0 2 608 624
4	211760016 82921 30562615 32887883 20.290557910941 21.836689503845 2773 0 2 643 661
4	228260259 84325 32889574 35213931 21.837718952238 23.382624155083 2822 0 2 679 711
4	244770791 81831 35214466 37540025 23.383045710071 24.933587885187 2738 0 2 644 670
4	261272290 79369 37543405 39861247 24.935910770702 26.465822179567 2656 0 3 619 647
4	277786399 80651 39863772 42186881 26.467545093908 28.004632736435 2697 0 2 655 689
4	294301010 81518 42189329 44512599 28.006274953241 29.551077103631 2728 0 2 659 697
4	310793168 77835 44515613 46835496 29.552747259893 31.098338791414 2605 0 2 602 626
4	327311274 79448 46837206 49157994 31.09945723251 32.632800853951 2657 0 2 613 637
4	343820403 78447 49159157 51480927 32.633545294333 34.169665263672 2624 0 3 617 665
4	360330458 82422 51482396 53803337 34.170636834002 35.709479728227 2758 0 2 635 651
4	376835448 77077 53805426 56123114 35.711116743252 37.255271619176 2579 0 2 560 574
4	393344492 82116 56127975 58453206 37.258257322918 38.801886827626 2747 0 2 641 663
4	409844421 79676 58455339 60772777 38.803190410932 40.33658189714 2666 0 2 625 651
4	426364029 80206 60777188 63098859 40.339342303295 41.884348986849 2683 0 2 625 651
4	442865037 77207 63102060 65420181 41.886705618938 43.424388340439 2582 0 2 587 615
4	459378408 79522 65423671 67744562 43.426478449582 44.975309396793 2660 0 2 627 653
4	475893311 78836 67746686 70071342 44.976921487451 46.524359925239 2638 0 2 598 618
4	492388457 80683 70078802 72394422 46.529346225229 48.061203025324 2701 0 2 633 661
4	508898854 81184 72395266 74714430 48.061845543749 49.597221184061 2715 0 2 649 679
4	525414739 82259 74716266 77038503 49.598579430645 51.140427569025 2752 0 2 641 669
4	541913701 78195 77043282 79362738 51.143629540942 52.673292264395 2616 0 2 594 612
4	558416501 80405 79363431 81678723 52.67384532622 54.216872816705 2691 0 2 609 627
4	574929904 81426 81687749 84010002 54.222865361376 55.756223699752 2724 0 2 653 685
4	591447593 82428 84011186 86335202 55.757173889463 57.298235062628 2759 0 2 646 666
4	607939005 81742 86336830 88659251 57.299270886956 58.848603249443 2734 0 2 674 712
4	624449479 81205 88663353 90983373 58.851122675192 60.394421644492 2716 0 2 634 658
4	640704197 41404 90986518 92033832 60.396728659124 61.088264866831 1385 0 2 332 342
vector 5 AFDXExampleNetwork.S1.switchFabric.lowQueue length ETV
5	515551 394278 30 2323075 0.000082677023 1.539188444369 14383 0 1 1162 1162
5	15744836 403027 2323586 4644731 1.539517051172 3.07994016783 14452 0 1 1149 1149
5	31204639 400351 4644893 6966196 3.080096901098 4.61219186593 14353 0 1 1118 1118
5	46657216 398532 6966521 9289383 4.61253599729 6.155665275591 14290 0 1 1150 1150
5	62128998 407856 9289973 11612595 6.155933723179 7.703686189209 14272 0 1 1117 1117
5	77980308 409287 11613402 13930940 7.70414413702 9.242969093366 14169 0 1 1141 1141
5	93509364 63681 13931077 14292719 9.243017476546 9.482330263091 2204 0 1 173 173
5	96442617 426883 14292798 16612759 9.48235277829 11.018271726539 14442 0 1 1138 1138
5	112792022 429394 16613344 18940131 11.018584340503 12.571057451694 14372 0 1 1179 1179
5	129293339 430381 18941176 21263390 12.571770308581 14.108907807682 14400 0 1 1147 1147
5	145816214 430358 21264174 23590007 14.109520542311 15.65543265906 14402 0 1 1155 1155
5	162308477 432818 23590902 25912769 15.656228569096 17.199492318628 14481 0 1 1166 1166
5	178825911 440555 25912825 28237420 17.199504158628 18.749496632765 14737 0 1 1181 1181
5	195324640 433785 28237944 30562097 18.749739689658 20.290168468239 14510 0 1 1144 1144
5	211842937 434592 30562313 32889140 20.29030103498 21.837382562219 14540 0 1 1155 1155
5	228344584 428189 32889249 35213978 21.837450056874 23.382645189559 14327 0 1 1144 1144
5	244852622 435500 35213990 37540192 23.382645275233 24.933658978066 14573 0 1 1124 1124
5	261351659 427513 37540518 39861789 24.933961247229 26.466178572416 14303 0 1 1147 1147
5	277867050 426888 39862430 42186981 26.466484282982 28.004727132642 14282 0 1 1146 1146
5	294382528 437419 42187836 44513131 28.005212279042 29.55142353312 14637 0 1 1191 1191
5	310871003 433333 44513481 46836951 29.551627814413 31.099377093036 14499 0 1 1141 1141
5	327390722 433065 46837224 49158760 31.09947835266 32.633404518762 14492 0 1 1156 1156
5	343898850 434641 49158925 51481025 32.633475683563 34.169723559038 14542 0 1 1152 1152
5	360412880 442284 51481336 53804521 34.169875980076 35.710497172408 14799 0 1 1218 1218
5	376912525 430088 53804717 56127603 35.710626217461 37.258072581627 14392 0 1 1172 1172
5	393426608 432938 56127821 58453270 37.258174255764 38.801907947776 14484 0 1 1161 1161
5	409924097 427907 58453398 60774433 38.802027729453 40.337753410692 14318 0 1 1142 1142
5	426444235 433516 60774985 63098870 40.338146385739 41.884370106999 14505 0 1 1152 1152
5	442942244 430493 63099015 65422247 41.884541137287 43.425543008235 14402 0 1 1171 1171
5	459457930 431619 65423099 67746469 43.42589910866 44.976808931151 14444 0 1 1149 1149
5	475972147 432785 67746736 70073154 44.976934093636 46.52576495431 14481 0 1 1181 1181
5	492469140 427206 70073726 72394452 46.526109685538 48.061224145474 14292 0 1 1098 1098
5	508980038 431131 72394925 74715932 48.061574943667 49.598400367349 14425 0 1 1172 1172
5	525496998 430841 74716213 77039796 49.59857121072 51.141292691674 14415 0 1 1142 1142
5	541991896 424170 77039961 79362767 51.141389229516 52.673303144545 14189 0 1 1105 1105
5	558496906 429375 79363205 81686460 52.673630730061 54.221879108854 14365 0 1 1127 1127
5	575011330 435595 81686747 84010357 54.222123456877 55.756483012582 14571 0 1 1192 1192
5	591530021 434876 84010769 86335827 55.75679282473 57.298658233536 14552 0 1 1165 1165
5	608020747 434860 86335993 88659085 57.298676968002 58.848540628259 14547 0 1 1203 1203
5	624530684 431279 88659764 90986190 58.848806517816 60.396636613354 14428 0 1 1142 1142
5	640745601 198385 90986454 92035169 60.396714018656 61.089112062641 6640 0 1 546 546
vector 6 AFDXExampleNetwork.S1.switchPort[1].txQueue length ETV
6	909829 458321 34 2323050 0.000082677023 1.539141413592 16713 0 4 3864 5000
6	16147863 472224 2323881 4644690 1.539689427457 3.079915168508 16933 0 5 3940 5132
6	31604990 475284 4645656 6966200 3.080633897182 4.61219186593 17043 0 4 4035 5339
6	47055748 471775 6966410 9288804 4.612440041997 6.155476158064 16916 0 4 3998 5276
6	62536854 474558 9289489 11612688 6.155725883051 7.703746079359 16605 0 4 3814 4990
6	78389595 490001 11613329 13930819 7.704047706108 9.242763466935 16964 0 4 4008 5210
6	93573045 75757 13930967 14292723 9.242984293805 9.482330263091 2623 0 3 579 709
6	96869500 501225 14292802 16612826 9.48235277829 11.01831145151 16962 0 5 4326 5860
6	113221416 508497 16613024 18940135 11.018386020034 12.571057451694 17017 0 5 3976 5236
6	129723720 504545 18940606 21263665 12.57131569766 14.109145800345 16881 0 4 4105 5509
6	146246572 501268 21263813 23589409 14.109222036412 15.655091380291 16773 0 5 3800 4976
6	162741295 508805 23590272 25912363 15.655733825335 17.199278402689 17027 0 4 4115 5435
6	179266466 512878 25912773 28237424 17.199492318628 18.749496632765 17157 0 4 3950 5106
6	195758425 503771 28237620 30562101 18.749593562806 20.290168468239 16855 0 5 3830 4940
6	212277529 509904 30562388 32889054 20.29033974073 21.837337619233 17054 0 4 3929 5157
6	228772773 515887 32889383 35213677 21.837593860675 23.382523180553 17261 0 5 4242 5640
6	245288122 507035 35213982 37540064 23.382645189559 24.933598765337 16965 0 5 3915 5137
6	261779172 504760 37540522 39862337 24.933961247229 26.46637121915 16888 0 3 3836 4876
6	278293938 496124 39862436 42187298 26.466484282982 28.004834132997 16602 0 4 3716 4842
6	294819947 491909 42187842 44513135 28.005212279042 29.55142353312 16457 0 4 3590 4612
6	311304336 509762 44513485 46836837 29.551627814413 31.099197342015 17056 0 4 4081 5329
6	327823787 508597 46837228 49158698 31.09947835266 32.63336732937 17020 0 5 4105 5515
6	344333491 504534 49159236 51481042 32.633556174483 34.169735399038 16878 0 4 4023 5245
6	360855164 515349 51481340 53804430 34.169875980076 35.710329770588 17244 0 4 4179 5457
6	377342613 507440 53804749 56127670 35.710646037113 37.258084421627 16978 0 5 4075 5429
6	393859546 501253 56127908 58453274 37.258234337302 38.801907947776 16769 0 4 3850 4966
6	410352004 499315 58453402 60774174 38.802027729453 40.337643586585 16707 0 4 3887 5191
6	426877751 501637 60775133 63098689 40.338241433947 41.884194347256 16785 0 4 3775 4771
6	443372737 507690 63098874 65421983 41.884370106999 43.42537623479 16986 0 4 3924 5064
6	459889549 507353 65422898 67746607 43.425795957179 44.976902225471 16975 0 4 3966 5152
6	476404932 504881 67746711 70073206 44.976927639477 46.525779283637 16894 0 4 3957 5189
6	492896346 508859 70073228 72394487 46.525801360622 48.061246225474 17024 0 4 4121 5397
6	509411169 506649 72395035 74715846 48.06162916149 49.598361108846 16951 0 5 3973 5177
6	525927839 517908 74716312 77039356 49.598590310795 51.141152479206 17328 0 4 4148 5442
6	542416066 501596 77040000 79363000 51.141402126698 52.673511020836 16779 0 5 3863 5051
6	558926281 506092 79363209 81686133 52.673630730061 54.221722711172 16931 0 4 3937 5103
6	575446925 509048 81686753 84010599 54.222123456877 55.75654885872 17031 0 6 4136 5544
6	591964897 507875 84010773 86335831 55.75679282473 57.298658233536 16992 0 4 3931 5107
6	608455607 506613 86335997 88659289 57.298676968002 58.848624369593 16950 0 5 4034 5372
6	624961963 497922 88660877 90986199 58.849491394447 60.396636613354 16657 0 4 3751 4805
6	640943986 234237 90986296 92035508 60.396648453354 61.089407153643 7838 0 4 1993 2695
vector 7 AFDXExampleNetwork.S1.switchPort[3].txQueue length ETV
7	1368150 218267 35 2323051 0.000082677023 1.539141413592 7962 0 3 1213 1429
7	16620087 220231 2323918 4644691 1.539719074757 3.079915168508 7897 0 3 1193 1401
7	32080274 224113 4645700 6966201 3.080651509833 4.61219186593 8037 0 4 1211 1461
7	47527523 223235 6966411 9288805 4.612440041997 6.155476158064 8003 0 3 1187 1361
7	63011412 227012 9289490 11612689 6.155725883051 7.703746079359 7944 0 3 1254 1498
7	78879596 236819 11613330 13930820 7.704047706108 9.242763466935 8199 0 3 1252 1422
7	93648802 35180 13931034 14292724 9.242999280804 9.482330263091 1219 0 2 164 180
7	97370725 238611 14292803 16611552 9.48235277829 11.017515996696 8073 0 3 1362 1630
7	113729913 233955 16613162 18940136 11.018471853068 12.571057451694 7829 0 4 1179 1407
7	130228265 239234 18941327 21263666 12.571804647931 14.109145800345 8004 0 3 1249 1473
7	146747840 237739 21263814 23589316 14.109222036412 15.655044985917 7953 0 3 1124 1294
7	163250100 235412 23590850 25912364 15.656197225944 17.199278402689 7879 0 4 1191 1441
7	179779344 241463 25912774 28236408 17.199492318628 18.748726616889 8077 0 4 1181 1401
7	196262196 240759 28237672 30562102 18.749627325636 20.290168468239 8056 0 4 1265 1541
7	212787433 240854 30562529 32889055 20.290483454506 21.837337619233 8056 0 3 1229 1451
7	229288660 246161 32889384 35213678 21.837593860675 23.382523180553 8235 0 4 1339 1659
7	245795157 240909 35213995 37540065 23.382645275233 24.933598765337 8061 0 3 1202 1408
7	262283932 238861 37540523 39862338 24.933961247229 26.46637121915 7993 0 2 1202 1380
7	278790062 236628 39862437 42187299 26.466484282982 28.004834132997 7919 0 3 1153 1329
7	295311856 233988 42187963 44513136 28.0052802202 29.55142353312 7828 0 4 1120 1344
7	311814098 235838 44513848 46836838 29.55183907183 31.099197342015 7892 0 3 1212 1438
7	328332384 236642 46837229 49158120 31.09947835266 32.63291051573 7919 0 5 1249 1561
7	344838025 236318 49159237 51481043 32.633556174483 34.169735399038 7906 0 3 1217 1427
7	361370513 240679 51481555 53803714 34.170036114709 35.709740747222 8054 0 3 1298 1546
7	377850053 233854 53805200 56127671 35.710987811262 37.258084421627 7823 0 3 1208 1432
7	394360799 242853 56128018 58453275 37.258268203068 38.801907947776 8123 0 3 1291 1549
7	410851319 240629 58453539 60774175 38.802068717789 40.337643586585 8053 0 4 1276 1532
7	427379388 236062 60775134 63098690 40.338241433947 41.884194347256 7898 0 3 1197 1413
7	443880427 233695 63098875 65421686 41.884370106999 43.425267676935 7819 0 3 1169 1377
7	460396902 238821 65423049 67745669 43.42587492688 44.97609896322 7991 0 3 1184 1378
7	476909813 237879 67746767 70073195 44.976945933636 46.525779280622 7961 0 3 1185 1399
7	493405205 239575 70073572 72394457 46.526004729392 48.061224145474 8017 0 3 1240 1440
7	509917818 235869 72395289 74715791 48.061856423899 49.598283096954 7891 0 3 1168 1360
7	526445747 243028 74716313 77039357 49.598590310795 51.141152479206 8129 0 3 1300 1552
7	542917662 236423 77040001 79362772 51.141402126698 52.673303144545 7908 0 4 1275 1571
7	559432373 239453 79363459 81685922 52.67385620637 54.221510364211 8011 0 3 1161 1345
7	575955973 241418 81686754 84010600 54.222123456877 55.75654885872 8077 0 4 1297 1547
7	592472772 241473 84010774 86335225 55.75679282473 57.298256182778 8079 0 3 1268 1508
7	608962220 244006 86335998 88659290 57.298676968002 58.848624369593 8163 0 4 1313 1599
7	625459885 237885 88663063 90986200 58.850918591833 60.396636613354 7958 0 3 1151 1323
7	641178223 113411 90986297 92035509 60.396648453354 61.089407153643 3795 0 4 643 803
vector 8 AFDXExampleNetwork.ECSC3_MON.txQueueA length ETV
8	1586417 51261 43 2323206 0.000094540531 1.539309322979 1870 0 1 12 12
8	16840318 50968 2323946 4644613 1.539800160654 3.079834907024 1828 0 1 19 19
8	32304387 51457 4646682 6965797 3.081211576116 4.611825793163 1845 0 1 12 12
8	47750758 52333 6967629 9288697 4.613490289265 6.155346555428 1876 0 1 15 15
8	63238424 54341 9290115 11612119 6.156029823735 7.703384791416 1901 0 1 19 19
8	79116415 53766 11613919 13929502 7.704677781768 9.241673439548 1861 0 1 14 14
8	93683982 8216 13931309 14291312 9.243201521814 9.481782589824 284 0 1 2 2
8	97609336 54186 14293304 16612409 9.482751184319 11.017971534156 1833 0 1 9 9
8	113963868 55629 16614291 18938559 11.019285612648 12.570184021304 1861 0 1 14 14
8	130467499 55796 18941185 21262829 12.571770639199 14.108512998363 1866 0 2 18 20
8	146985579 56255 21264856 23588546 14.109934927864 15.654332482945 1882 0 1 13 13
8	163485512 56077 23590315 25912479 15.655827896446 17.199333486857 1877 0 1 16 16
8	180020807 56780 25914139 28237398 17.200500608228 18.749484074166 1899 0 2 17 19
8	196502955 55689 28238969 30562116 18.750452211815 20.290182104731 1863 0 1 11 11
8	213028287 55722 30563262 32887819 20.291068697679 21.83664115922 1864 0 1 13 13
8	229534821 56045 32889470 35213765 21.837673870347 23.382576606684 1876 0 1 12 12
8	246036066 54339 35215087 37539232 23.383377041099 24.933105897255 1818 0 1 13 13
8	262522793 54823 37540686 39861832 24.934112993045 26.466201016469 1834 0 1 15 15
8	279026690 56519 39862613 42186639 26.46677244373 28.004475682164 1891 0 1 9 9
8	295545844 56558 42187749 44512265 28.005199777432 29.55089448593 1892 0 2 19 21
8	312049936 54836 44514740 46836853 29.552409094648 31.099282445714 1834 0 1 16 16
8	328569026 56443 46839338 49158217 31.100870186232 32.63307462205 1888 0 1 14 14
8	345074343 56467 49159167 51479900 32.63354590959 34.169201391983 1889 0 2 13 15
8	361611192 54846 51481641 53803577 34.170149338387 35.70964708758 1835 0 1 12 12
8	378083907 54832 53805484 56126517 35.711174171063 37.257424147885 1834 0 1 11 11
8	394603652 55687 56128416 58452421 37.25859049593 38.801067612565 1863 0 1 11 11
8	411091948 56513 58454110 60773673 38.802567431226 40.337380518169 1891 0 1 11 11
8	427615450 55513 60774766 63096894 40.33796819302 41.883064456492 1858 0 1 14 14
8	444114122 56209 63098960 65421131 41.884483457657 43.424812419239 1880 0 1 15 15
8	460635723 54902 65423512 67745526 43.426295247655 44.975996140478 1837 0 1 11 11
8	477147692 54397 67746750 70072367 44.976941745418 46.525092548848 1820 0 1 12 12
8	493644780 54792 70073712 72392580 46.526107641288 48.060272850602 1833 0 2 21 23
8	510153687 54046 72394767 74714059 48.061456227446 49.597031305326 1808 0 1 13 13
8	526688775 55230 74716197 77039485 49.598565242391 51.141221417151 1848 0 1 17 17
8	543154085 56234 77040715 79362361 51.141984306888 52.672936467864 1881 0 1 16 16
8	559671826 55526 79364279 81684547 52.674301525109 54.220859045087 1858 0 1 14 14
8	576197391 56941 81686875 84010078 54.222177245764 55.756321425238 1905 0 1 22 22
8	592714245 55412 84012378 86335427 55.757856065326 57.298524049028 1854 0 1 19 19
8	609206226 55595 86336665 88658948 57.299148092853 58.848411089334 1860 0 1 14 14
8	625697770 55974 88660245 90985176 58.849083335346 60.39572177478 1873 0 1 9 9
8	641291634 24991 90987328 92034124 60.397290529857 61.088488070923 836 0 1 3 3
vector 9 AFDXExampleNetwork.ECSC3_MON.txQueueB length ETV
9	1637678 50932 44 2323207 0.000094540531 1.539309322979 1858 0 0 0 0
9	16891286 50439 2323947 4644614 1.539800160654 3.079834907024 1809 0 0 0 0
9	32355844 51122 4646683 6965798 3.081211576116 4.611825793163 1833 0 0 0 0
9	47803091 51913 6967630 9288698 4.613490289265 6.155346555428 1861 0 0 0 0
9	63292765 53804 9290116 11612120 6.156029823735 7.703384791416 1882 0 0 0 0
9	79170181 53362 11613920 13929503 7.704677781768 9.241673439548 1847 0 0 0 0
9	93692198 8158 13931310 14291313 9.243201521814 9.481782589824 282 0 0 0 0
9	97663522 53918 14293305 16612410 9.482751184319 11.017971534156 1824 0 0 0 0
9	114019497 55211 16614292 18938560 11.019285612648 12.570184021304 1847 0 0 0 0
9	130523295 55317 18941186 21262830 12.571770639199 14.108512998363 1850 0 0 0 0
9	147041834 55867 21264857 23588547 14.109934927864 15.654332482945 1869 0 0 0 0
9	163541589 55600 23590316 25912480 15.655827896446 17.199333486857 1861 0 0 0 0
9	180077587 56331 25914140 28237399 17.200500608228 18.749484074166 1884 0 0 0 0
9	196558644 55359 28238970 30562117 18.750452211815 20.290182104731 1852 0 0 0 0
9	213084009 55332 30563263 32887820 20.291068697679 21.83664115922 1851 0 0 0 0
9	229590866 55685 32889471 35213766 21.837673870347 23.382576606684 1864 0 0 0 0
9	246090405 53953 35215088 37539233 23.383377041099 24.933105897255 1805 0 0 0 0
9	262577616 54377 37540687 39861833 24.934112993045 26.466201016469 1819 0 0 0 0
9	279083209 56250 39862614 42186640 26.46677244373 28.004475682164 1882 0 0 0 0
9	295602402 56048 42187750 44512266 28.005199777432 29.55089448593 1875 0 0 0 0
9	312104772 54358 44514741 46836854 29.552409094648 31.099282445714 1818 0 0 0 0
9	328625469 56024 46839339 49158218 31.100870186232 32.63307462205 1874 0 0 0 0
9	345130810 56137 49159168 51479901 32.63354590959 34.169201391983 1878 0 0 0 0
9	361666038 54488 51481642 53803578 34.170149338387 35.70964708758 1823 0 0 0 0
9	378138739 54505 53805485 56126518 35.711174171063 37.257424147885 1823 0 0 0 0
9	394659339 55357 56128417 58452422 37.25859049593 38.801067612565 1852 0 0 0 0
9	411148461 56186 58454111 60773674 38.802567431226 40.337380518169 1880 0 0 0 0
9	427670963 55095 60774767 63096895 40.33796819302 41.883064456492 1844 0 0 0 0
9	444170331 55761 63098961 65421132 41.884483457657 43.424812419239 1865 0 0 0 0
9	460690625 54572 65423513 67745527 43.426295247655 44.975996140478 1826 0 0 0 0
9	477202089 54039 67746751 70072368 44.976941745418 46.525092548848 1808 0 0 0 0
9	493699572 54222 70073713 72392581 46.526107641288 48.060272850602 1814 0 0 0 0
9	510207733 53656 72394768 74714060 48.061456227446 49.597031305326 1795 0 0 0 0
9	526744005 54721 74716198 77039486 49.598565242391 51.141221417151 1831 0 0 0 0
9	543210319 55758 77040716 79362362 51.141984306888 52.672936467864 1865 0 0 0 0
9	559727352 55107 79364280 81684548 52.674301525109 54.220859045087 1844 0 0 0 0
9	576254332 56286 81686876 84010079 54.222177245764 55.756321425238 1883 0 0 0 0
9	592769657 54845 84012379 86335428 55.757856065326 57.298524049028 1835 0 0 0 0
9	609261821 55175 86336666 88658949 57.299148092853 58.848411089334 1846 0 0 0 0
9	625753744 55706 88660246 90985177 58.849083335346 60.39572177478 1864 0 0 0 0
9	641316625 24901 90987329 92034125 60.397290529857 61.088488070923 833 0 0 0 0
vector 10 AFDXExampleNetwork.S111.switchFabric.highQueue length ETV
10	1688610 231741 62 2323100 0.000105420546 1.539222859187 8155 0 0 0 0
10	16941725 234988 2323620 4644749 1.539547413151 3.079940196733 8136 0 0 0 0
10	32406966 232021 4645131 6966113 3.080291324267 4.612084590739 8033 0 0 0 0
10	47855004 238700 6966462 9289317 4.612495772677 6.155621877268 8260 0 0 0 0
10	63346569 238936 9289498 11612898 6.155727430787 7.703870235235 8075 0 0 0 0
10	79223543 240838 11613017 13930526 7.703910697826 9.242507193305 8059 0 0 0 0
10	93700356 38468 13931211 14292037 9.243127682736 9.482102138298 1287 0 0 0 0
10	97717440 246608 14293233 16612895 9.482709209868 11.018329393375 8072 0 0 0 0
10	114074708 253760 16613366 18940160 11.018596458248 12.57106717325 8215 0 0 0 0
10	130578612 249938 18940256 21263356 12.571106738899 14.108890272778 8092 0 0 0 0
10	147097701 254679 21264260 23589893 14.109595201164 15.655382736181 8243 0 0 0 0
10	163597189 251410 23590327 25912642 15.655838776461 17.19946366306 8140 0 0 0 0
10	180133918 252470 25912968 28237407 17.199592077553 18.749494954181 8174 0 0 0 0
10	196614003 251692 28237538 30562283 18.749533753383 20.290295768428 8150 0 0 0 0
10	213139341 248994 30562420 32889024 20.290363207805 21.837324139477 8062 0 0 0 0
10	229646551 252459 32889552 35213832 21.837716886862 23.382587486699 8173 0 0 0 0
10	246144358 250962 35214104 37539582 23.382736703614 24.933315144542 8125 0 0 0 0
10	262631993 252050 37540764 39861473 24.934160315362 26.466014603688 8160 0 0 0 0
10	279139459 251439 39862359 42187550 26.466396619421 28.005053009204 8142 0 0 0 0
10	295658450 251087 42187817 44512935 28.005210657447 29.551266726946 8128 0 0 0 0
10	312159130 250674 44513335 46836862 29.551483859465 31.099293325729 8114 0 0 0 0
10	328681493 248437 46837162 49158747 31.099439926495 32.633394619668 8043 0 0 0 0
10	345186947 249206 49159058 51481092 32.633516154446 34.169775421855 8067 0 0 0 0
10	361720526 250257 51482200 53804605 34.170547928749 35.71057345031 8101 0 0 0 0
10	378193244 258926 53804933 56127630 35.710774929333 37.258075358041 8382 0 0 0 0
10	394714696 251934 56127916 58452452 37.25824088221 38.80107849258 8156 0 0 0 0
10	411204647 249414 58453522 60774337 38.802067764995 40.337711216441 8075 0 0 0 0
10	427726058 250911 60775252 63098490 40.338287470804 41.884126360448 8123 0 0 0 0
10	444226092 250831 63099098 65422162 41.884622674776 43.425493787706 8121 0 0 0 0
10	460745197 250879 65422802 67746342 43.425754441122 44.976747777998 8123 0 0 0 0
10	477256128 244945 67746835 70073099 44.97697063591 46.525719424916 7930 0 0 0 0
10	493753794 249214 70073530 72394306 46.525971062496 48.061117304615 8068 0 0 0 0
10	510261389 247512 72395611 74715239 48.062081080133 49.597882904466 8013 0 0 0 0
10	526798726 254573 74716089 77039772 49.598474349661 51.141282930588 8242 0 0 0 0
10	543266077 253971 77040744 79362815 51.141995186903 52.673406976876 8221 0 0 0 0
10	559782459 248965 79363271 81686575 52.673771188753 54.22193844549 8060 0 0 0 0
10	576310618 254489 81686706 84010568 54.222077994562 55.75654052071 8238 0 0 0 0
10	592824502 250970 84010619 86335888 55.75655236071 57.298662493254 8124 0 0 0 0
10	609316996 248318 86335960 88659679 57.298669606431 58.84878880264 8041 0 0 0 0
10	625809450 250345 88659836 90986245 58.848852600065 60.396640458133 8104 0 0 0 0
10	641341526 114321 90986397 92035517 60.396674364888 61.089408143488 3700 0 0 0 0
vector 11 AFDXExampleNetwork.S111.switchPort[1].txQueue length ETV
11	1920351 319410 66 2322982 0.000105420546 1.539116932647 11240 0 4 1170 1424
11	17176713 333560 2323998 4644818 1.539820559258 3.079979410342 11549 0 3 1232 1476
11	32638987 332417 4645135 6966117 3.080291324267 4.612084590739 11507 0 3 1213 1415
11	48093704 333946 6966466 9289255 4.612495772677 6.155590759842 11560 0 3 1156 1334
11	63585505 338999 9289502 11612902 6.155727430787 7.703870235235 11453 0 3 1095 1255
11	79464381 339529 11613021 13930530 7.703910697826 9.242507193305 11361 0 4 1130 1328
11	93738824 54777 13931177 14292457 9.243103401634 9.482195715474 1833 0 2 188 212
11	97964048 344872 14292788 16612899 9.482352408546 11.018329393375 11291 0 3 1135 1337
11	114328468 354831 16612929 18940164 11.018335239142 12.57106717325 11487 0 3 1157 1363
11	130828550 350310 18940260 21263732 12.571106738899 14.109172626815 11341 0 4 1081 1285
11	147352380 352927 21263758 23589897 14.109184466815 15.655382736181 11424 0 3 1142 1296
11	163848599 352091 23590331 25912429 15.655838776461 17.199310075603 11399 0 3 1157 1379
11	180386388 350972 25912972 28237282 17.199592077553 18.749355443615 11363 0 3 1102 1266
11	196865695 360192 28237531 30562287 18.749526946122 20.290295768428 11662 0 3 1158 1348
11	213388335 352107 30562424 32889028 20.290363207805 21.837324139477 11399 0 3 1129 1307
11	229899010 352420 32889486 35213836 21.837684750362 23.382587486699 11409 0 4 1145 1357
11	246395320 346343 35214108 37540429 23.382736703614 24.933843666002 11213 0 3 1119 1295
11	262884043 348542 37540707 39861870 24.93412387306 26.466211896484 11283 0 3 1110 1276
11	279390898 353469 39862363 42187605 26.466396619421 28.005070459471 11444 0 3 1155 1325
11	295909537 352167 42187927 44513306 28.005240081675 29.551473267522 11400 0 3 1191 1395
11	312409804 351123 44514084 46836866 29.551917677209 31.099293325729 11366 0 3 1110 1292
11	328929930 346266 46837166 49158230 31.099439926495 32.633085502065 11209 0 3 1066 1206
11	345436153 350608 49159062 51480338 32.633516154446 34.169538998916 11350 0 3 1094 1240
11	361970783 349633 51481223 53804369 34.169817069796 35.710300555848 11319 0 3 1085 1245
11	378452170 353020 53804609 56127410 35.71057345031 37.258033375296 11428 0 4 1164 1370
11	394966630 352085 56128429 58452683 37.258592938398 38.801293267478 11397 0 3 1123 1275
11	411454061 353783 58453478 60774341 38.802048290794 40.337711216441 11453 0 3 1206 1418
11	427976969 349158 60774697 63098792 40.337929222874 41.884268935209 11304 0 3 1126 1306
11	444476923 347946 63098973 65422195 41.884494337672 43.425512055044 11262 0 3 1045 1205
11	460996076 349105 65422806 67746543 43.425754441122 44.976874290591 11304 0 3 1141 1321
11	477501073 344833 67747264 70073103 44.977238162738 46.525719424916 11164 0 3 1019 1165
11	494003008 353538 70073410 72394435 46.525904394569 48.061208298709 11444 0 4 1187 1429
11	510508901 350184 72394622 74715498 48.061409216437 49.59802556891 11337 0 3 1101 1267
11	527053299 356010 74716498 77039776 49.598686182395 51.141282930588 11527 0 3 1163 1365
11	543520048 351577 77040367 79363013 51.141776108543 52.673518626852 11381 0 3 1140 1318
11	560031424 352376 79363047 81686579 52.673530466852 54.22193844549 11408 0 3 1166 1368
11	576565107 353573 81686787 84010572 54.222140857347 55.75654052071 11447 0 3 1138 1310
11	593075472 352358 84010623 86335845 55.75655236071 57.298658318257 11406 0 3 1149 1321
11	609565314 353166 86336282 88659549 57.298834614451 58.848745369821 11435 0 3 1171 1397
11	626059795 347987 88659840 90985813 58.848852600065 60.396296010739 11266 0 3 1046 1190
11	641455847 158452 90986401 92035539 60.396674364888 61.089426486143 5130 0 2 455 493
vector 12 AFDXExampleNetwork.S111.switchPort[3].txQueue length ETV
12	2239761 151675 67 2322086 0.000105420546 1.538391107205 5339 0 3 311 365
12	17510273 158836 2323999 4644754 1.539820559258 3.079940196733 5499 0 2 297 329
12	32971404 155787 4645498 6966118 3.080542310227 4.612084590739 5392 0 2 297 331
12	48427650 159126 6967643 9288469 4.61350116928 6.155080410475 5508 0 2 278 298
12	63924504 160242 9289701 11612903 6.155790370587 7.703870235235 5413 0 2 285 311
12	79803910 163894 11614214 13930406 7.704911780796 9.242414680507 5483 0 4 294 364
12	93793601 26364 13931178 14292371 9.243103401634 9.482169612964 882 0 1 41 41
12	98308920 167199 14292789 16612451 9.482352408546 11.017982414171 5472 0 2 250 272
12	114683299 169087 16613286 18940165 11.018558065632 12.57106717325 5475 0 3 284 310
12	131178860 169253 18940261 21263206 12.571106738899 14.108776334084 5481 0 3 277 331
12	147705307 170264 21264265 23589898 14.109595201164 15.655382736181 5510 0 2 259 275
12	164200690 167283 23590332 25912232 15.655838776461 17.199153017196 5416 0 2 264 294
12	180737360 165866 25913732 28236784 17.200217697014 18.749068737479 5370 0 2 240 262
12	197225887 168596 28237584 30562288 18.7495603362 20.290295768428 5458 0 2 262 284
12	213740442 169092 30562425 32888935 20.290363207805 21.837297463231 5475 0 2 259 277
12	230251430 170919 32889981 35213837 21.837903524483 23.382587486699 5533 0 3 254 276
12	246741663 161657 35215292 37540430 23.383434158995 24.933843666002 5234 0 2 253 271
12	263232585 166424 37540990 39861478 24.934348103499 26.466014603688 5388 0 2 261 281
12	279744367 172992 39862364 42187606 26.466396619421 28.005070459471 5600 0 3 267 307
12	296261704 166851 42188173 44513257 28.005397320459 29.551461427522 5402 0 2 279 313
12	312760927 165264 44513307 46836867 29.551473267522 31.099293325729 5348 0 2 254 278
12	329276196 163939 46837167 49158231 31.099439926495 32.633085502065 5308 0 2 224 240
12	345786761 163458 49159063 51480339 32.633516154446 34.169538998916 5291 0 2 251 283
12	362320416 165735 51481973 53804370 34.170374275663 35.710300555848 5365 0 2 215 239
12	378805190 165824 53804610 56127411 35.71057345031 37.258033375296 5367 0 2 253 289
12	395318715 169391 56128430 58451292 37.258592938398 38.800333702408 5485 0 2 257 279
12	411807844 169018 58453747 60774197 38.802267599235 40.337656155951 5471 0 2 298 328
12	428326127 167669 60774698 63098793 40.337929222874 41.884268935209 5428 0 3 258 290
12	444824869 169366 63098974 65422196 41.884494337672 43.425512055044 5483 0 2 246 272
12	461345181 168059 65423228 67746262 43.42598137573 44.976658397024 5443 0 3 279 319
12	477845906 166633 67747265 70072705 44.977238162738 46.525268774306 5395 0 2 238 252
12	494356546 168881 70073411 72394196 46.525904394569 48.060980457975 5466 0 2 265 291
12	510859085 171043 72394784 74715499 48.061467107461 49.59802556891 5537 0 2 294 326
12	527409309 171448 74716696 77039777 49.598794772388 51.141282930588 5551 0 2 300 328
12	543871625 168498 77040368 79363014 51.141776108543 52.673518626852 5454 0 2 249 269
12	560383800 169453 79363048 81686290 52.673530466852 54.221823903628 5487 0 2 285 321
12	576918680 170670 81686915 84010180 54.222188125779 55.756364301672 5525 0 2 276 300
12	593427830 165608 84011573 86335846 55.757383144447 57.298658318257 5361 0 3 235 251
12	609918480 167551 86336283 88659550 57.298834614451 58.848745369821 5425 0 2 259 277
12	626407782 167251 88659954 90985597 58.848907492827 60.395968382204 5415 0 2 272 302
12	641614299 76023 90987383 92034894 60.397301409872 61.088819805805 2462 0 1 95 95
vector 13 AFDXExampleNetwork.S11.switchFabric.highQueue length ETV
13	2391436 623662 79 2322870 0.000116300571 1.539041222532 21954 0 1 1150 1150
13	17669109 640227 2323666 4644869 1.539589653201 3.080088625539 22161 0 1 1211 1211
13	33127191 638975 4644911 6966151 3.080101954752 4.612105710764 22117 0 1 1182 1182
13	48586776 642595 6966339 9289333 4.612381166704 6.155640760403 22246 0 1 1164 1164
13	64084746 652544 9289420 11612568 6.155690225787 7.703672420022 22061 0 1 1177 1177
13	79967804 653300 11612931 13930885 7.70389135526 9.242927037201 21855 0 1 1158 1158
13	93819965 102825 13931244 14292540 9.243148802761 9.482220645402 3439 0 1 179 179
13	98476119 674260 14292987 16612797 9.482544704311 11.018300320178 22073 0 1 1149 1149
13	114852386 679915 16612919 18940189 11.018334279167 12.571088293275 22014 0 1 1137 1137
13	131348113 678266 18940278 21263650 12.571112498924 14.109139923704 21962 0 1 1127 1127
13	147875571 681554 21263962 23590022 14.109260301844 15.655441437401 22065 0 1 1109 1109
13	164367973 685221 23590203 25912685 15.655600335917 17.199478122516 22182 0 1 1196 1196
13	180903226 684183 25912839 28237362 17.19950590311 18.749434743135 22148 0 1 1187 1187
13	197394483 683668 28237491 30562205 18.749516714231 20.290229525556 22135 0 1 1208 1208
13	213909534 679718 30562330 32889074 20.290316888453 21.837354725805 22007 0 1 1170 1170
13	230422349 680349 32889276 35213963 21.837454272096 23.382643256099 22025 0 1 1108 1108
13	246903320 685408 35214027 37540275 23.382664263526 24.93374692457 22192 0 1 1172 1172
13	263399009 679012 37540643 39862216 24.934072489786 26.466267060777 21982 0 1 1167 1167
13	279917359 683454 39862382 42187660 26.466417739446 28.005095249254 22130 0 1 1158 1158
13	296428555 674420 42187905 44513149 28.005232417497 29.551426950223 21831 0 1 1140 1140
13	312926191 684247 44513316 46836905 29.551477137815 31.099329065057 22150 0 1 1143 1143
13	329440135 686624 46837021 49158899 31.099393637642 32.633468406604 22228 0 1 1245 1245
13	345950219 672934 49158939 51481078 32.633478990508 34.169773465169 21787 0 1 1150 1150
13	362486151 677521 51481300 53804467 34.169840293388 35.710440643242 21935 0 1 1132 1132
13	378971014 685278 53804643 56127427 35.710594570335 37.258035411785 22186 0 1 1183 1183
13	395488106 691806 56127786 58453045 37.258117598091 38.801777627358 22395 0 1 1198 1198
13	411976862 681256 58453316 60774587 38.801942072558 40.337856901556 22056 0 1 1183 1183
13	428493796 682141 60774903 63098654 40.338083305366 41.884177360957 22084 0 1 1144 1144
13	444994235 676294 63098898 65422360 41.88441987645 43.425644442858 21894 0 1 1154 1154
13	461513240 682573 65422820 67746660 43.425765321147 44.976920261954 22095 0 1 1158 1158
13	478012539 680978 67746973 70073110 44.97701287596 46.525740544941 22046 0 1 1158 1158
13	494525427 688572 70073388 72394505 46.525903338327 48.061257731005 22292 0 1 1240 1240
13	511030128 675741 72394672 74715965 48.061421056437 49.598419914044 21877 0 1 1145 1145
13	527580757 673023 74716175 77039719 49.598516589711 51.141272045462 21789 0 1 1130 1130
13	544040123 684097 77039813 79362879 51.141293810613 52.673464606889 22145 0 1 1160 1160
13	560553253 681228 79363284 81686600 52.673780188835 54.221959565515 22053 0 1 1189 1189
13	577089350 682577 81686683 84010609 54.222051327584 55.756551400735 22100 0 1 1172 1172
13	593593438 679986 84010637 86335815 55.756563240735 57.298657358282 22015 0 1 1181 1181
13	610086031 682569 86335946 88659748 57.298669198282 58.848804888927 22098 0 1 1153 1153
13	626575033 686979 88659796 90986212 58.848826968927 60.396637695521 22238 0 1 1147 1147
13	641690322 304006 90986312 92035576 60.396649535521 61.08947035805 9840 0 1 501 501
vector 14 AFDXExampleNetwork.S11.switchPort[1].txQueue length ETV
14	3015098 721431 83 2323048 0.000116300571 1.53914116686 25387 0 6 7043 9757
14	18309336 743361 2323693 4644843 1.5396031103 3.080005476758 25730 0 4 7111 9699
14	33766166 738009 4645146 6966155 3.080297084292 4.612105710764 25545 0 6 7147 10117
14	49229371 750357 6966345 9289337 4.612381166704 6.155640760403 25979 0 5 7260 10188
14	64737290 758697 9289424 11612615 6.155690225787 7.703696665766 25640 0 6 6984 9602
14	80621104 759390 11612935 13930845 7.70389135526 9.242813468278 25404 0 5 7172 10018
14	93922790 118784 13931140 14292558 9.243079296507 9.482228675499 3973 0 4 1126 1570
14	99150379 776857 14292826 16612734 9.482373528571 11.018235194098 25441 0 4 6991 9497
14	115532301 790382 16612923 18940193 11.018334279167 12.571088293275 25587 0 4 6900 9260
14	132026379 788905 18940282 21263747 12.571112498924 14.109184083704 25544 0 5 6970 9538
14	148557125 782518 21263779 23590026 14.10919534684 15.655441437401 25333 0 4 6686 8958
14	165053194 791135 23590075 25912759 15.655462523354 17.199489962516 25612 0 4 7085 9691
14	181587409 788843 25912983 28237293 17.199597837578 18.74937656364 25541 0 5 7108 9770
14	198078151 786292 28237476 30562209 18.749514928792 20.290229525556 25458 0 6 6976 9772
14	214589252 786399 30562334 32889118 20.290316888453 21.837375281552 25461 0 5 7000 9726
14	231102698 783914 32889327 35213890 21.837473472631 23.382612135545 25377 0 4 6818 9232
14	247588728 784593 35214033 37540451 23.382664263526 24.933854546027 25398 0 5 6911 9475
14	264078021 779669 37540718 39862202 24.934134753085 26.466266037114 25240 0 6 6905 9587
14	280600813 788554 39862386 42187712 26.466417739446 28.005186443948 25531 0 4 6877 9289
14	297102975 783360 42187938 44513282 28.0052612017 29.551472307547 25355 0 5 6955 9651
14	313610438 784778 44513368 46836881 29.551484147547 31.099304205754 25409 0 5 6935 9529
14	330126759 781765 46837182 49158603 31.09944568652 32.633310837983 25311 0 5 6840 9388
14	346623153 785888 49158943 51481110 32.633478990508 34.169785305169 25447 0 5 7071 9839
14	363163672 788947 51481292 53804403 34.169838189821 35.710321675873 25541 0 4 7027 9645
14	379656292 792904 53804647 56127557 35.710594570335 37.258064211785 25668 0 6 7093 9731
14	396179912 791925 56128297 58453261 37.258510820101 38.801905540281 25640 0 5 6920 9490
14	412658118 792665 58453500 60774591 38.802059170819 40.337856901556 25663 0 5 7290 10224
14	429175937 779293 60774664 63098809 40.337916670343 41.884274695234 25228 0 5 6793 9373
14	445670529 788946 63098902 65422364 41.88441987645 43.425644442858 25539 0 4 7025 9641
14	462195813 784789 65422824 67746609 43.425765321147 44.976902241018 25405 0 5 7002 9630
14	478693517 782889 67747128 70073114 44.9771636047 46.525740544941 25344 0 4 6707 8933
14	495213999 782248 70073427 72394470 46.525910154594 48.061229418734 25322 0 5 6770 9188
14	511705869 781707 72394658 74715751 48.061420096462 49.598265556318 25308 0 4 6959 9621
14	528253780 791698 74716289 77039765 49.59858483495 51.141280942311 25635 0 4 7092 9716
14	544724220 784659 77039817 79362883 51.141293810613 52.673464606889 25401 0 4 6992 9720
14	561234481 784306 79363031 81686604 52.673529506877 54.221959565515 25390 0 4 6717 8909
14	577771927 789476 81686825 84010587 54.222161977372 55.75654804067 25561 0 4 7082 9626
14	594273424 778107 84010613 86335819 55.756551400735 57.298657358282 25190 0 4 6871 9487
14	610768600 793027 86335950 88659571 57.298669198282 58.848756249846 25674 0 5 7024 9666
14	627262012 781037 88659887 90985908 58.84887372009 60.396384894704 25281 0 5 6667 8999
14	641994328 350554 90986412 92035558 60.396685244913 61.089447606168 11348 0 4 3007 4019
vector 15 AFDXExampleNetwork.S11.switchPort[3].txQueue length ETV
15	3736529 330946 84 2322744 0.000116300571 1.538951836883 11647 0 3 1805 2129
15	19052697 345971 2324023 4644826 1.539831439283 3.079983396758 11975 0 3 1978 2406
15	34504175 338259 4645522 6966156 3.080548070252 4.612105710764 11708 0 3 1924 2398
15	49979728 345972 6966946 9288669 4.612905213472 6.155311829452 11978 0 5 1907 2369
15	65495987 346263 9289741 11612480 6.155801250612 7.70363394884 11701 0 3 1786 2106
15	81380494 350198 11612936 13930435 7.70389135526 9.242420440532 11716 0 3 1855 2209
15	94041574 55530 13931202 14292545 9.243124521659 9.482220645402 1858 0 3 299 369
15	99927236 365528 14292827 16612466 9.482373528571 11.017993294196 11969 0 3 1965 2399
15	116322683 363120 16613012 18940194 11.018381690914 12.571088293275 11755 0 3 1837 2211
15	132815284 367064 18940283 21263616 12.571112498924 14.109127482514 11882 0 4 1847 2241
15	149339643 362322 21264330 23590027 14.109616321189 15.655441437401 11731 0 3 1738 2034
15	165844329 362815 23590076 25912760 15.655462523354 17.199489962516 11747 0 3 1744 2048
15	182376252 361426 25913006 28236854 17.199647936358 18.749089857504 11701 0 4 1847 2227
15	198864443 357115 28237599 30562182 18.749581456225 20.290203864771 11562 0 5 1842 2348
15	215375651 360899 30562335 32889119 20.290316888453 21.837375281552 11687 0 3 1768 2098
15	231886612 365673 32889328 35213862 21.837473472631 23.382598366724 11838 0 3 1829 2187
15	248373321 358083 35214128 37540452 23.382756196859 24.933854546027 11594 0 3 1793 2159
15	264857690 360214 37541006 39862203 24.934353863524 26.466266037114 11659 0 3 1860 2262
15	281389367 367257 39862387 42187645 26.466417739446 28.005081339496 11889 0 3 1809 2189
15	297886335 360923 42188126 44513283 28.005384136608 29.551472307547 11682 0 4 1814 2216
15	314395216 360142 44513369 46836882 29.551484147547 31.099304205754 11659 0 4 1804 2168
15	330908524 358787 46837183 49158604 31.09944568652 32.633310837983 11617 0 4 1824 2272
15	347409041 357441 49158944 51480409 32.633478990508 34.169560118941 11574 0 3 1825 2199
15	363952619 365666 51481751 53804404 34.170267217674 35.710321675873 11837 0 3 1814 2152
15	380449196 364782 53804648 56127523 35.710594570335 37.258054495321 11807 0 3 1880 2254
15	396971837 366701 56128458 58452766 37.258603818423 38.801481084566 11871 0 5 1866 2340
15	413450783 370979 58453762 60774592 38.80227847926 40.337856901556 12009 0 4 2071 2617
15	429955230 358642 60774744 63098810 40.337950342899 41.884274695234 11612 0 3 1740 2076
15	446459475 371259 63098925 65422365 41.884445667818 43.425644442858 12017 0 4 1971 2447
15	462980602 361783 65423282 67746278 43.426002495755 44.976679517049 11711 0 3 1839 2219
15	479476406 361582 67747129 70072721 44.9771636047 46.525274534331 11705 0 3 1748 2072
15	495996247 363077 70073428 72394324 46.525910154594 48.061137686698 11753 0 3 1845 2215
15	512487576 363308 72394804 74715752 48.061477987486 49.598265556318 11764 0 4 1931 2395
15	529045478 364895 74716348 77039643 49.5985973452 51.141258862311 11814 0 3 1878 2258
15	545508879 361415 77039818 79362884 51.141293810613 52.673464606889 11700 0 4 1815 2219
15	562018787 363216 79363032 81686420 52.673529506877 54.221859973061 11758 0 4 1860 2220
15	578561403 368768 81686973 84010588 54.222199005804 55.75654804067 11938 0 4 1982 2454
15	595051531 353934 84010887 86335820 55.756940844168 57.298657358282 11458 0 3 1656 1940
15	611561627 365514 86335951 88659572 57.298669198282 58.848756249846 11832 0 3 1857 2273
15	628043049 362142 88660006 90985895 58.848928612852 60.396364606596 11723 0 3 1801 2147
15	642344882 163001 90986442 92034932 60.396712859529 61.088841777528 5277 0 3 821 989
vector 16 AFDXExampleNetwork.ECB.txQueueA length ETV
16	4067475 66781 102 2322557 0.000140857117 1.53881797635 2350 0 1 14 14
16	19398668 67065 2324126 4644243 1.539887572594 3.079673883142 2322 0 1 11 11
16	34842434 65365 4645070 6964843 3.080268283967 4.611155870036 2264 0 1 10 10
16	50325700 66979 6966313 9288827 4.612370389881 6.155482275862 2318 0 1 13 13
16	65842250 70080 9290402 11612663 6.156242871721 7.703739626631 2369 0 1 9 9
16	81730692 68970 11612918 13930322 7.703887657526 9.242391640207 2308 0 1 15 15
16	94097104 11459 13931651 14290809 9.243469936197 9.481429447375 383 0 1 3 3
16	100292764 70912 14292742 16612270 9.482340050957 11.017931735845 2321 0 1 13 13
16	116685803 73307 16613897 18940178 11.019032760423 12.571083698599 2373 0 1 17 17
16	133182348 71213 18941532 21263492 12.571980151545 14.109070203263 2305 0 1 12 12
16	149701965 72647 21264525 23589072 14.10973301839 15.654840545541 2351 0 1 8 8
16	166207144 71738 23590547 25912050 15.655945619344 17.19910942971 2323 0 1 8 8
16	182737678 70302 25912926 28236714 17.199569037253 18.749048599434 2276 0 1 7 7
16	199221558 73422 28237769 30561057 18.749707995831 20.289504373118 2378 0 1 15 15
16	215736550 72038 30562995 32887890 20.29082297077 21.836702233824 2332 0 1 17 17
16	232252285 72288 32889911 35212673 21.837880484183 23.381910450712 2341 0 1 7 7
16	248731404 71557 35214219 37540321 23.382844012473 24.933818812045 2316 0 1 17 17
16	265217904 72164 37540907 39861634 24.934325063199 26.466105698015 2336 0 1 14 14
16	281756624 71563 39863348 42186753 26.467126894444 28.004583030087 2317 0 1 9 9
16	298247258 72737 42188554 44512148 28.005695861756 29.550822096014 2355 0 1 7 7
16	314755358 72126 44513998 46836551 29.551894636909 31.098994693019 2336 0 1 10 10
16	331267311 71187 46837071 49157795 31.099416886195 32.632648402502 2305 0 1 11 11
16	347766482 71970 49159137 51479374 32.633544642403 34.168871146146 2330 0 1 7 7
16	364318285 71850 51481327 53804283 34.169874094216 35.710240403939 2326 0 1 12 12
16	380813978 71686 53805205 56127266 35.71098875533 37.258002731743 2321 0 1 9 9
16	397338538 70903 56129184 58452183 37.259160744106 38.800898071913 2296 0 1 8 8
16	413821762 71440 58453330 60773373 38.80194712239 40.336973363026 2311 0 1 5 5
16	430313872 71905 60774812 63098718 40.338005832625 41.884245894909 2328 0 1 14 14
16	446830734 71231 63100124 65420972 41.885456923713 43.424744922192 2306 0 1 11 11
16	463342385 72037 65423243 67746286 43.425993886226 44.976699895775 2332 0 1 10 10
16	479837988 73949 67747730 70073070 44.977550740795 46.525706650511 2394 0 1 11 11
16	496359324 71653 70073290 72393974 46.525881354269 48.060898376871 2320 0 1 11 11
16	512850884 71882 72395545 74715034 48.062058039833 49.597770296751 2328 0 1 11 11
16	529410373 72393 74717090 77039589 49.598998048358 51.141248763417 2344 0 1 18 18
16	545870294 70134 77040965 79362138 51.142143830057 52.67271778304 2270 0 1 13 13
16	562382003 72414 79363059 81684863 52.673536076008 54.22101808487 2345 0 1 11 11
16	578930171 73625 81686647 84009385 54.222005258091 55.755944391909 2384 0 1 21 21
16	595405465 72579 84011083 86335239 55.757088745745 57.298318229209 2350 0 1 11 11
16	611927141 71939 86336144 88659296 57.298764994146 58.848624913027 2329 0 1 10 10
16	628405191 71226 88660492 90985493 58.84932089188 60.395945341904 2306 0 1 15 15
16	642507883 33029 90986740 92035471 60.396868564653 61.089398466806 1069 0 1 3 3
vector 17 AFDXExampleNetwork.ECB.txQueueB length ETV
17	4134256 66386 103 2322558 0.000140857117 1.53881797635 2336 0 0 0 0
17	19465733 66746 2324127 4644244 1.539887572594 3.079673883142 2311 0 0 0 0
17	34907799 65075 4645071 6964844 3.080268283967 4.611155870036 2254 0 0 0 0
17	50392679 66603 6966314 9288828 4.612370389881 6.155482275862 2305 0 0 0 0
17	65912330 69813 9290403 11612664 6.156242871721 7.703739626631 2360 0 0 0 0
17	81799662 68521 11612919 13930323 7.703887657526 9.242391640207 2293 0 0 0 0
17	94108563 11369 13931652 14290810 9.243469936197 9.481429447375 380 0 0 0 0
17	100363676 70514 14292743 16612271 9.482340050957 11.017931735845 2308 0 0 0 0
17	116759110 72783 16613898 18940179 11.019032760423 12.571083698599 2356 0 0 0 0
17	133253561 70842 18941533 21263493 12.571980151545 14.109070203263 2293 0 0 0 0
17	149774612 72401 21264526 23589073 14.10973301839 15.654840545541 2343 0 0 0 0
17	166278882 71490 23590548 25912051 15.655945619344 17.19910942971 2315 0 0 0 0
17	182807980 70086 25912927 28236715 17.199569037253 18.749048599434 2269 0 0 0 0
17	199294980 72959 28237770 30561058 18.749707995831 20.289504373118 2363 0 0 0 0
17	215808588 71513 30562996 32887891 20.29082297077 21.836702233824 2315 0 0 0 0
17	232324573 72073 32889912 35212674 21.837880484183 23.381910450712 2334 0 0 0 0
17	248802961 71030 35214220 37540322 23.382844012473 24.933818812045 2299 0 0 0 0
17	265290068 71731 37540908 39861635 24.934325063199 26.466105698015 2322 0 0 0 0
17	281828187 71284 39863349 42186754 26.467126894444 28.004583030087 2308 0 0 0 0
17	298319995 72520 42188555 44512149 28.005695861756 29.550822096014 2348 0 0 0 0
17	314827484 71817 44513999 46836552 29.551894636909 31.098994693019 2326 0 0 0 0
17	331338498 70847 46837072 49157796 31.099416886195 32.632648402502 2294 0 0 0 0
17	347838452 71753 49159138 51479375 32.633544642403 34.168871146146 2323 0 0 0 0
17	364390135 71478 51481328 53804284 34.169874094216 35.710240403939 2314 0 0 0 0
17	380885664 71408 53805206 56127267 35.71098875533 37.258002731743 2312 0 0 0 0
17	397409441 70655 56129185 58452184 37.259160744106 38.800898071913 2288 0 0 0 0
17	413893202 71285 58453331 60773374 38.80194712239 40.336973363026 2306 0 0 0 0
17	430385777 71472 60774813 63098719 40.338005832625 41.884245894909 2314 0 0 0 0
17	446901965 70891 63100125 65420973 41.885456923713 43.424744922192 2295 0 0 0 0
17	463414422 71727 65423244 67746287 43.425993886226 44.976699895775 2322 0 0 0 0
17	479911937 73609 67747731 70073071 44.977550740795 46.525706650511 2383 0 0 0 0
17	496430977 71314 70073291 72393975 46.525881354269 48.060898376871 2309 0 0 0 0
17	512922766 71542 72395546 74715035 48.062058039833 49.597770296751 2317 0 0 0 0
17	529482766 71835 74717091 77039590 49.598998048358 51.141248763417 2326 0 0 0 0
17	545940428 69733 77040966 79362139 51.142143830057 52.67271778304 2257 0 0 0 0
17	562454417 72074 79363060 81684864 52.673536076008 54.22101808487 2334 0 0 0 0
17	579003796 72975 81686648 84009386 54.222005258091 55.755944391909 2363 0 0 0 0
17	595478044 72240 84011084 86335240 55.757088745745 57.298318229209 2339 0 0 0 0
17	611999080 71631 86336145 88659297 57.298764994146 58.848624913027 2319 0 0 0 0
17	628476417 70761 88660493 90985494 58.84932089188 60.395945341904 2291 0 0 0 0
17	642540912 32939 90986741 92035472 60.396868564653 61.089398466806 1066 0 0 0 0
vector 18 AFDXExampleNetwork.S3.switchFabric.highQueue length ETV
18	4200642 53407 111 2322571 0.000146617167 1.5388237364 1880 0 0 0 0
18	19532479 51915 2326585 4644252 1.541765113094 3.079679643192 1797 0 0 0 0
18	34972874 52007 4645079 6964483 3.080274044017 4.610928780768 1801 0 0 0 0
18	50459282 52677 6970941 9289076 4.61557264439 6.155517478401 1823 0 0 0 0
18	65982143 55381 9290938 11612272 6.156540568333 7.703444621973 1873 0 0 0 0
18	81868183 55532 11612945 13930331 7.703893417576 9.242397400257 1858 0 0 0 0
18	94119932 7983 13931668 14292191 9.243475696247 9.482120667621 267 0 0 0 0
18	100434190 55188 14292765 16612287 9.482345811007 11.017937495895 1806 0 0 0 0
18	116831893 55250 16615848 18940203 11.020203772703 12.571089458649 1789 0 0 0 0
18	133324403 55673 18944964 21263501 12.574167165635 14.109075963313 1802 0 0 0 0
18	149847013 56915 21268533 23589099 14.112449595516 15.654846305591 1842 0 0 0 0
18	166350372 56126 23590556 25911692 15.655951379394 17.198801622338 1818 0 0 0 0
18	182878066 55556 25912935 28236723 17.199574797303 18.749054359484 1799 0 0 0 0
18	199367939 58339 28237809 30559256 18.749713755881 20.288347190492 1890 0 0 0 0
18	215880101 56299 30564442 32887899 20.291841104294 21.836707993874 1822 0 0 0 0
18	232396646 57145 32890484 35211885 21.838299665311 23.381469819064 1850 0 0 0 0
18	248873991 57619 35214396 37540354 23.383000632136 24.933824572095 1865 0 0 0 0
18	265361799 58479 37540916 39862110 24.934330823249 26.466249342067 1894 0 0 0 0
18	281899471 56613 39862696 42185533 26.466810534472 28.003635537178 1833 0 0 0 0
18	298392515 58513 42187767 44512161 28.005203106364 29.550827856064 1894 0 0 0 0
18	314899301 60392 44514905 46836563 29.552478493509 31.099000453069 1955 0 0 0 0
18	331409345 57722 46837080 49154298 31.099422646245 32.629931475055 1868 0 0 0 0
18	347910205 59354 49159187 51480707 32.633550402453 34.169598798804 1921 0 0 0 0
18	364461613 58159 51486429 53800491 34.173457655297 35.707635841614 1883 0 0 0 0
18	380957072 56712 53805234 56124045 35.71099451538 37.255654238193 1836 0 0 0 0
18	397480096 53656 56129240 58450364 37.259166504156 38.799727563943 1737 0 0 0 0
18	413964487 56753 58453339 60773397 38.80195288244 40.336979123076 1836 0 0 0 0
18	430457249 56061 60774821 63098434 40.338011592675 41.884109080198 1815 0 0 0 0
18	446972856 58159 63100184 65422645 41.885486006503 43.42567551035 1883 0 0 0 0
18	463486149 55891 65423262 67740319 43.425999646276 44.972623136145 1810 0 0 0 0
18	479985546 56941 67748718 70073080 44.978280654573 46.525712410561 1842 0 0 0 0
18	496502291 56592 70075162 72393996 46.527238387485 48.060904136921 1832 0 0 0 0
18	512994308 55150 72395554 74715051 48.062063799883 49.597776056801 1786 0 0 0 0
18	529554601 56006 74717116 77038080 49.599003808408 51.140046489707 1813 0 1 1 1
18	546010161 57082 77042021 79362199 51.142790523418 52.67272354309 1849 0 0 0 0
18	562526491 57047 79364815 81685617 52.674776015371 54.221301293247 1847 0 0 0 0
18	579076771 57467 81686656 84006282 54.222011018141 55.7537633094 1861 0 0 0 0
18	595550284 56255 84011095 86333878 55.757094505795 57.297616260937 1821 0 0 0 0
18	612070711 55847 86336153 88659307 57.298770754196 58.848630673077 1808 0 0 0 0
18	628547178 57619 88660501 90983027 58.84932665193 60.394194917951 1865 0 0 0 0
18	642573851 27168 90986761 92034794 60.396874324703 61.088802525555 879 0 0 0 0
vector 19 AFDXExampleNetwork.S3.switchPort[2].txQueue length ETV
19	4254049 95512 115 2323445 0.000146617167 1.539486163607 3363 0 3 1287 1865
19	19584394 91763 2323499 4644257 1.539492883582 3.079679643192 3176 0 4 1155 1663
19	35024881 94577 4646050 6964569 3.080910624168 4.610942220743 3276 0 4 1270 1902
19	50511959 95317 6966327 9289149 4.612376149931 6.155530918376 3299 0 4 1255 1803
19	66037524 94753 9290415 11612676 6.156248631771 7.703745386681 3204 0 3 1102 1582
19	81923715 100916 11613037 13928736 7.703913342103 9.24107118652 3378 0 4 1315 1923
19	94127915 15755 13931672 14292258 9.243475696247 9.482134107596 527 0 3 218 326
19	100489378 98096 14292769 16608993 9.482345811007 11.015632600753 3208 0 3 1168 1654
19	116887143 94429 16614480 18939908 11.019329596814 12.570938837533 3057 0 4 1081 1573
19	133380076 102522 18940353 21263506 12.571176585338 14.109075963313 3320 0 3 1267 1799
19	149903928 100269 21264539 23589103 14.10973877844 15.654846305591 3245 0 3 1199 1709
19	166406498 94828 23590560 25912064 15.655951379394 17.19911518976 3071 0 4 1134 1668
19	182933622 98768 25917306 28236728 17.202566187326 18.749054359484 3198 0 3 1132 1596
19	199426278 101436 28238273 30560921 18.749896088457 20.289424377286 3286 0 3 1224 1730
19	215936400 97942 30563008 32886908 20.29082873082 21.836046473549 3169 0 3 1157 1637
19	232453791 97881 32889788 35211889 21.837852239235 23.381469819064 3169 0 3 1143 1623
19	248931610 97093 35214240 37540359 23.382849772523 24.933824572095 3142 0 3 1104 1570
19	265420278 104825 37542769 39862191 24.935450435796 26.466262782042 3393 0 3 1299 1851
19	281956084 102019 39862701 42186778 26.466810534472 28.004588790137 3303 0 3 1250 1790
19	298451028 104198 42187772 44510866 28.005203106364 29.550010287699 3371 0 3 1256 1796
19	314959693 104011 44514662 46833695 29.552353607943 31.097221449658 3367 0 4 1268 1816
19	331467067 102405 46841056 49157825 31.101790377212 32.632654162552 3314 0 3 1256 1790
19	347969559 103240 49159191 51480810 32.633550402453 34.169612238779 3341 0 4 1273 1851
19	364519772 98231 51482766 53804304 34.170993934819 35.710246163989 3181 0 3 1125 1597
19	381013784 103200 53806865 56123771 35.71214225502 37.255451704626 3341 0 3 1212 1718
19	397533752 90932 56130794 58452196 37.26038185166 38.800903831963 2944 0 3 999 1417
19	414021240 102338 58453343 60771892 38.80195288244 40.335845820653 3310 0 3 1240 1748
19	430513310 105382 60774825 63097173 40.338011592675 41.883294924278 3411 0 4 1319 1911
19	447031015 100642 63100138 65422672 41.885462683763 43.42568223035 3258 0 3 1253 1817
19	463542040 98462 65422694 67746306 43.42568895035 44.976705655825 3187 0 4 1133 1643
19	480042487 101690 67748956 70073084 44.978370133161 46.525712410561 3292 0 3 1185 1675
19	496558883 97935 70073889 72394000 46.526189949014 48.060904136921 3170 0 4 1166 1686
19	513049458 100396 72398532 74716078 48.06385416687 49.598469472372 3252 0 4 1204 1762
19	529610607 96407 74716126 77038085 49.598476192372 51.140046489707 3121 0 4 1068 1546
19	546067243 104044 77040988 79362204 51.142149590107 52.67272354309 3370 0 2 1258 1760
19	562583538 99621 79363734 81685668 52.673905408098 54.221314733222 3225 0 3 1171 1661
19	579134238 95892 81686660 84009836 54.222011018141 55.756125759127 3105 0 3 1126 1600
19	595606539 100072 84011099 86335881 55.757094505795 57.298662212612 3239 0 3 1216 1722
19	612126558 96259 86336158 88659311 57.298770754196 58.848630673077 3117 0 3 1075 1517
19	628604797 105354 88661863 90982661 58.850025091254 60.393770083182 3410 0 5 1365 2023
19	642601019 47596 90986765 92035484 60.396874324703 61.089404226856 1541 0 4 648 986
vector 20 AFDXExampleNetwork.S3.switchPort[4].txQueue length ETV
20	4349561 16730 116 2316757 0.000146617167 1.534995596411 589 0 0 0 0
20	19676157 16386 2325658 4641368 1.541208040495 3.077876095973 567 0 0 0 0
20	35119458 15656 4651327 6962508 3.084195372444 4.609880371515 542 0 0 0 0
20	50607276 17534 6976754 9288746 4.619470669172 6.155444350316 607 0 0 0 0
20	66132277 18879 9290416 11612677 6.156248631771 7.703745386681 638 0 0 0 0
20	82024631 17842 11613038 13924103 7.703913342103 9.238134012269 597 0 0 0 0
20	94143670 3022 13931673 14290838 9.243475696247 9.481435207425 101 0 0 0 0
20	100587474 17153 14292770 16608994 9.482345811007 11.015632600753 561 0 0 0 0
20	116981572 18014 16626207 18926022 11.026824291718 12.561447354598 583 0 0 0 0
20	133482598 17134 18947899 21259419 12.576292842123 14.106353475248 555 0 0 0 0
20	150004197 19393 21265233 23589104 14.11021994484 15.654846305591 628 0 0 0 0
20	166501326 17165 23590561 25908710 15.655951379394 17.196920234947 556 0 0 0 0
20	183032390 16661 25924760 28233475 17.207360968711 18.746740567574 540 0 0 0 0
20	199527714 18689 28238274 30559896 18.749896088457 20.28867118785 605 0 0 0 0
20	216034342 17582 30563009 32884136 20.29082873082 21.834078737399 569 0 0 0 0
20	232551672 18359 32894705 35211890 21.840981468485 23.381469819064 594 0 0 0 0
20	249028703 17743 35214401 37536022 23.383000632136 24.930996210016 574 0 0 0 0
20	265525103 18319 37549141 39861676 24.939949419726 26.466111458065 593 0 0 0 0
20	282058103 18016 39865582 42185538 26.468827046885 28.003635537178 583 0 0 0 0
20	298555226 17330 42191636 44510678 28.007815693891 29.54989887163 561 0 0 0 0
20	315063704 18535 44516255 46814673 29.553014210872 31.085048323414 600 0 0 0 0
20	331569472 17071 46848184 49157826 31.106589320704 32.632654162552 553 0 0 0 0
20	348072799 17915 49159192 51476343 32.633550402453 34.167268724633 580 0 0 0 0
20	364618003 17316 51482767 53804305 34.170993934819 35.710246163989 561 0 0 0 0
20	381116984 19025 53806866 56120958 35.71214225502 37.254075798835 616 0 0 0 0
20	397624684 18406 56130795 58452197 37.26038185166 38.800903831963 596 0 0 0 0
20	414123578 17655 58453344 60771893 38.80195288244 40.335845820653 571 0 0 0 0
20	430618692 18159 60774826 63091652 40.338011592675 41.879700396767 588 0 0 0 0
20	447131657 17628 63100189 65415501 41.885486006503 43.421437051926 571 0 0 0 0
20	463640502 18036 65425354 67736419 43.42802927585 44.969994346073 584 0 0 0 0
20	480144177 18329 67748957 70073085 44.978370133161 46.525712410561 593 0 0 0 0
20	496656818 17554 70090153 72394001 46.536754086119 48.060904136921 568 0 0 0 0
20	513149854 18062 72399199 74714528 48.064156145694 49.597250103585 585 0 0 0 0
20	529707014 18431 74717121 77037176 49.599003808408 51.139543039201 597 0 0 0 0
20	546171287 16595 77040989 79361529 51.142149590107 52.67243953179 537 0 0 0 0
20	562683159 19207 79378357 81673292 52.683586372995 54.213300748307 622 0 0 0 0
20	579230130 17270 81686661 84009408 54.222011018141 55.755950151959 559 0 0 0 0
20	595706611 17475 84011100 86330988 55.757094505795 57.295498804874 566 0 0 0 0
20	612222817 18492 86338210 88659312 57.300170358067 58.848630673077 599 0 0 0 0
20	628710151 17065 88662678 90973934 58.850679043992 60.388382546783 552 0 0 0 0
20	642648615 8586 90986766 92035485 60.396874324703 61.089404226856 278 0 0 0 0
vector 21 AFDXExampleNetwork.EEC1B.txQueueA length ETV
21	4366291 44090 141 2322841 0.000174258594 1.539025898115 1552 0 0 0 0
21	19692543 44472 2325409 4642773 1.540935560455 3.078762480542 1540 0 0 0 0
21	35135114 45953 4645642 6965113 3.080628646717 4.611427618279 1591 0 0 0 0
21	50624810 43210 6967518 9288375 4.613293205144 6.155017383266 1496 0 0 0 0
21	66151156 44845 9291432 11611776 6.156814674924 7.703151893212 1515 0 0 0 0
21	82042473 46666 11613219 13929976 7.703942052031 9.242192524543 1562 0 0 0 0
21	94146692 7390 13931284 14291171 9.243176679296 9.481645286522 247 0 0 0 0
21	100604627 46480 14293703 16612660 9.48293542534 11.018201958377 1521 0 0 0 0
21	116999586 48113 16615803 18939653 11.020179818923 12.570813312284 1558 0 0 0 0
21	133499732 47330 18941548 21263076 12.571985361193 14.108685401037 1532 0 0 0 0
21	150023590 48058 21264113 23587917 14.109467634805 15.65388139602 1556 0 0 0 0
21	166518491 47763 23590284 25911857 15.655760196641 17.198939103087 1546 0 0 0 0
21	183049051 47772 25913263 28236488 17.19986673072 18.748871378897 1547 0 0 0 0
21	199546403 48471 28237760 30561709 18.749707464895 20.289939724017 1569 0 0 0 0
21	216051924 47747 30563466 32886490 20.291271297884 21.835828014752 1546 0 0 0 0
21	232570031 49075 32889611 35213567 21.837730132428 23.382403595499 1589 0 0 0 0
21	249046446 46632 35214705 37539443 23.383203847659 24.933200216225 1509 0 0 0 0
21	265543422 47078 37541437 39860223 24.934637768189 26.465178441634 1524 0 0 0 0
21	282076119 47253 39862856 42187516 26.466843384055 28.005045421229 1530 0 0 0 0
21	298572556 47973 42189696 44513193 28.006537712985 29.551440791688 1553 0 0 0 0
21	315082239 46911 44515816 46835641 29.552790808593 31.098479942353 1519 0 0 0 0
21	331586543 47860 46837378 49156708 31.099573987052 32.631826648559 1549 0 0 0 0
21	348090714 47757 49159177 51480417 32.633550230286 34.169562918903 1546 0 0 0 0
21	364635319 46761 51482127 53804424 34.170480003237 35.710328972465 1514 0 0 0 0
21	381136009 47107 53805034 56126094 35.710833454131 37.257112481745 1526 0 0 0 0
21	397643090 47482 56127803 58452958 37.25814305602 38.801668233754 1537 0 0 0 0
21	414141233 48204 58455736 60772303 38.803430438444 40.336117863457 1561 0 0 0 0
21	430636851 45501 60774669 63097352 40.337917068159 41.883444605211 1473 0 0 0 0
21	447149285 48401 63099535 65421598 41.884825970861 43.42522757031 1567 0 0 0 0
21	463658538 48498 65424121 67746459 43.426832271598 44.976808051712 1570 0 0 0 0
21	480162506 47311 67746924 70071445 44.977003592138 46.52441609741 1532 0 0 0 0
21	496674372 49049 70073278 72394349 46.525861828324 48.061154556236 1588 0 0 0 0
21	513167916 48732 72395332 74714772 48.061870943115 49.597484925379 1578 0 0 0 0
21	529725445 47291 74717281 77037692 49.599161047088 51.139885615569 1531 0 0 0 0
21	546187882 47141 77040091 79361204 51.141454883573 52.672174864009 1526 0 0 0 0
21	562702366 47829 79363937 81685706 52.674093445504 54.221370951741 1549 0 0 0 0
21	579247400 48913 81688253 84009122 54.223054998469 55.755817818562 1583 0 0 0 0
21	595724086 47254 84012060 86335561 55.757522752139 57.29860104305 1529 0 0 0 0
21	612241309 48620 86337955 88658168 57.30003289655 58.84777251482 1574 0 0 0 0
21	628727216 48050 88661169 90985261 58.849685023541 60.395801973919 1556 0 0 0 0
21	642657201 22467 90987520 92035182 60.397358938896 61.089130157024 727 0 0 0 0
vector 22 AFDXExampleNetwork.EEC1B.txQueueB length ETV
22	4410381 44090 142 2322842 0.000174258594 1.539025898115 1552 0 0 0 0
22	19737015 44472 2325410 4642774 1.540935560455 3.078762480542 1540 0 0 0 0
22	35181067 45953 4645643 6965114 3.080628646717 4.611427618279 1591 0 0 0 0
22	50668020 43210 6967519 9288376 4.613293205144 6.155017383266 1496 0 0 0 0
22	66196001 44845 9291433 11611777 6.156814674924 7.703151893212 1515 0 0 0 0
22	82089139 46666 11613220 13929977 7.703942052031 9.242192524543 1562 0 0 0 0
22	94154082 7390 13931285 14291172 9.243176679296 9.481645286522 247 0 0 0 0
[...]
220	491917516 43 69727315 69727315 46.298778860604 46.298778860604 1 3.99653e-006 3.99653e-006 3.99653e-006 1.59722520409e-011
220	524935634 85 73059155 74495297 48.502835332495 49.455554083864 2 1.26928e-006 4.4677e-006 5.73698e-006 2.15714150084e-011
220	541444127 44 75749271 75749271 50.285404587949 50.285404587949 1 3.640594e-006 3.640594e-006 3.640594e-006 1.3253924672836e-011
220	557953744 44 77148337 77148337 51.212972685807 51.212972685807 1 1.944609e-006 1.944609e-006 1.944609e-006 3.781504162881e-012
220	574463205 43 81169739 81169739 53.87921096784 53.87921096784 1 3.347371e-006 3.347371e-006 3.347371e-006 1.1204892611641e-011
220	623982929 85 87369232 88122424 57.989740459273 58.49238020457 2 1.3697e-007 5.588458e-006 5.725428e-006 3.1249623598664e-011
vector 221 AFDXExampleNetwork.IPCU.txQueueB "queueing time" ETV
221	46151417 42 4761178 4761178 3.156048566297 3.156048566297 1 4.916156e-006 4.916156e-006 4.916156e-006 2.4168589816336e-011
221	61612868 42 7157114 7157114 4.739754224711 4.739754224711 1 3.108989e-006 3.108989e-006 3.108989e-006 9.665812602121e-012
221	93428054 43 12755703 12755703 8.465467020178 8.465467020178 1 2.452927e-006 2.452927e-006 2.452927e-006 6.016850867329e-012
221	128750083 43 18474535 18474535 12.257970867069 12.257970867069 1 1.48847e-006 1.48847e-006 1.48847e-006 2.2155429409e-012
221	145259935 87 19531130 19584051 12.963938596217 12.99920196279 2 2.479329e-006 3.907026e-006 6.386355e-006 2.1411924454917e-011
221	161764385 44 22396479 22396479 14.859020004194 14.859020004194 1 4.188838e-006 4.188838e-006 4.188838e-006 1.7546363790244e-011
221	211286529 132 28509895 30059753 18.930993734994 19.957720356677 3 1.870432e-006 5.574015e-006 1.2886463e-005 6.4183697231105e-011
221	244299563 88 34579770 35130417 22.962488469019 23.327453986554 2 3.310686e-006 6.621255e-006 9.931941e-006 5.4801659565621e-011
221	293823589 88 40448011 41516697 26.856745357883 27.565133823182 2 1.976385e-006 3.872126e-006 5.848511e-006 1.8899457428101e-011
221	310329307 44 44087229 44087229 29.268603980165 29.268603980165 1 4.727246e-006 4.727246e-006 4.727246e-006 2.2346854744516e-011
221	326838855 44 45299158 45299158 30.074283110699 30.074283110699 1 1.663884e-006 1.663884e-006 1.663884e-006 2.768509965456e-012
221	343346725 44 48856717 48856717 32.433390822403 32.433390822403 1 3.452376e-006 3.452376e-006 3.452376e-006 1.1918900045376e-011
221	359856824 44 50420277 50420277 33.470471665667 33.470471665667 1 5.017244e-006 5.017244e-006 5.017244e-006 2.5172737355536e-011
221	376362514 44 52676652 52676652 34.964667591801 34.964667591801 1 6.664991e-006 6.664991e-006 6.664991e-006 4.4422105030081e-011
221	392873161 43 56106537 56106537 37.244562559303 37.244562559303 1 8.02093e-007 8.02093e-007 8.02093e-007 6.43353180649e-013
221	409379040 44 56348834 56348834 37.405409268545 37.405409268545 1 4.781177e-006 4.781177e-006 4.781177e-006 2.2859653505329e-011
221	491917559 43 69727316 69727316 46.298778860604 46.298778860604 1 3.99653e-006 3.99653e-006 3.99653e-006 1.59722520409e-011
221	524935719 85 73059156 74495298 48.502835332495 49.455554083864 2 1.26928e-006 4.4677e-006 5.73698e-006 2.15714150084e-011
221	541444171 44 75749272 75749272 50.285404587949 50.285404587949 1 3.640594e-006 3.640594e-006 3.640594e-006 1.3253924672836e-011
221	557953788 44 77148338 77148338 51.212972685807 51.212972685807 1 1.944609e-006 1.944609e-006 1.944609e-006 3.781504162881e-012
221	574463248 43 81169740 81169740 53.87921096784 53.87921096784 1 3.347371e-006 3.347371e-006 3.347371e-006 1.1204892611641e-011
221	623983014 85 87369233 88122425 57.989740459273 58.49238020457 2 1.3697e-007 5.588458e-006 5.725428e-006 3.1249623598664e-011
vector 222 AFDXExampleNetwork.ADIRU3.txQueueA "queueing time" ETV
222	46151459 83 4854229 6038102 3.217773159416 3.998116925469 2 6.68377e-007 1.533171e-006 2.201548e-006 2.79734112937e-012
222	61612910 82 7528664 8432719 4.986513001475 5.58571334603 2 7.65616e-007 6.022319e-006 6.787935e-006 3.6854493997217e-011
222	77438035 86 11050510 11476364 7.326884535874 7.611348976074 2 1.630595e-006 4.050722e-006 5.681317e-006 1.9067188775309e-011
222	93428097 42 11799069 11799069 7.827817047922 7.827817047922 1 1.93825e-006 1.93825e-006 1.93825e-006 3.7568130625e-012
222	128750126 44 18044768 18044768 11.971558993582 11.971558993582 1 4.105646e-006 4.105646e-006 4.105646e-006 1.6856329077316e-011
222	161764429 43 21997073 21997073 14.592167005292 14.592167005292 1 4.28039e-006 4.28039e-006 4.28039e-006 1.83217385521e-011
222	178272516 131 24707788 25654835 16.399966844148 17.027410860548 3 1.506021e-006 6.31412e-006 1.1953713e-005 5.9222628106025e-011
222	194779399 88 27240319 27336527 18.083958406823 18.146270405269 2 1.259813e-006 5.210745e-006 6.470558e-006 2.8738992249994e-011
222	211286661 212 28804617 29840674 19.123567848849 19.811812850548 2 3.895662e-006 6.407972e-006 1.0303634e-005 5.6238287571028e-011
222	227791633 42 31308538 31308538 20.7863262548 20.7863262548 1 6.645413e-006 6.645413e-006 6.645413e-006 4.4161513940569e-011
222	359856868 86 50239799 51265442 33.3496772751 34.028559085704 2 1.520754e-006 6.178059e-006 7.698813e-006 4.0481105735997e-011
222	425890845 41 58772151 58772151 39.015878152914 39.015878152914 1 1.838e-009 1.838e-009 1.838e-009 3.378244e-018
222	475412847 44 66989650 66989650 44.468215117717 44.468215117717 1 5.213055e-006 5.213055e-006 5.213055e-006 2.7175942433025e-011
222	508427773 44 70556462 70556462 46.844596610478 46.844596610478 1 5.897089e-006 5.897089e-006 5.897089e-006 3.4775658673921e-011
222	557953832 156 77708612 77708612 51.582709075276 51.582709075276 1 4.971087e-006 4.971087e-006 4.971087e-006 2.4711705961569e-011
222	640488763 44 90519158 90519158 60.086735425944 60.086735425944 1 2.132597e-006 2.132597e-006 2.132597e-006 4.547969964409e-012
222	647954182 44 91297914 91297914 60.603914681713 60.603914681713 1 2.789192e-006 2.789192e-006 2.789192e-006 7.779592012864e-012
vector 223 AFDXExampleNetwork.SECC2_COM.txQueueA "queueing time" ETV
223	46151542 42 5665084 5665084 3.755814935642 3.755814935642 1 4.574121e-006 4.574121e-006 4.574121e-006 2.0922582922641e-011
223	61612992 150 8552896 8552896 5.665465713067 5.665465713067 1 4.154249e-006 4.154249e-006 4.154249e-006 1.7257784754001e-011
223	128750170 88 16740362 17496190 11.102569217121 11.607817855751 2 3.112932e-006 4.489998e-006 7.60293e-006 2.9850427676628e-011
223	227791675 44 32042473 32042473 21.272531535221 21.272531535221 1 2.096758e-006 2.096758e-006 2.096758e-006 4.396394110564e-012
223	260804278 44 36812807 36812807 24.450025690149 24.450025690149 1 5.712078e-006 5.712078e-006 5.712078e-006 3.2627835078084e-011
223	293823677 43 41680625 41680625 27.673724052054 27.673724052054 1 5.82294e-007 5.82294e-007 5.82294e-007 3.39066302436e-013
223	310329351 308 43200894 43200894 28.684290926529 28.684290926529 1 2.538058e-006 2.538058e-006 2.538058e-006 6.441738411364e-012
223	359856954 44 49585322 49585322 32.916288820754 32.916288820754 1 4.285545e-006 4.285545e-006 4.285545e-006 1.8365895947025e-011
223	376362558 44 51624696 51624696 34.267071171717 34.267071171717 1 2.763278e-006 2.763278e-006 2.763278e-006 7.635705305284e-012
223	475412891 44 65712204 65712204 43.617988808277 43.617988808277 1 4.820225e-006 4.820225e-006 4.820225e-006 2.3234569050625e-011
223	524935804 44 72695864 72695864 48.260510513736 48.260510513736 1 6.030415e-006 6.030415e-006 6.030415e-006 3.6365905072225e-011
223	574463291 44 80399407 80399407 53.364362521553 53.364362521553 1 5.295948e-006 5.295948e-006 5.295948e-006 2.8047065218704e-011
223	607476312 44 86062476 86062476 57.114714273497 57.114714273497 1 5.180863e-006 5.180863e-006 5.180863e-006 2.6841341424769e-011
vector 224 AFDXExampleNetwork.R2.txQueueA length ETV
224	77438121 31 11113592 11113592 7.368535546508 7.368535546508 1 0 0 0 0
vector 225 AFDXExampleNetwork.R2.txQueueB length ETV
225	77438152 165 11113593 11113593 7.368535546508 7.368535546508 1 0 0 0 0
vector 226 AFDXExampleNetwork.SPDB_1.txQueueA "queueing time" ETV
226	93428139 85 12917562 13736385 8.572485639633 9.113300633703 2 8.50486e-007 5.931787e-006 6.782273e-006 3.5909423449565e-011
226	112244186 44 15518039 15518039 10.292267622138 10.292267622138 1 5.225844e-006 5.225844e-006 5.225844e-006 2.7309445512336e-011
226	145260022 44 19179565 19179565 12.729254899312 12.729254899312 1 2.776689e-006 2.776689e-006 2.776689e-006 7.710001802721e-012
226	178272647 43 25249413 25249413 16.758354396618 16.758354396618 1 3.71065e-006 3.71065e-006 3.71065e-006 1.37689234225e-011
226	343346769 44 48803233 48803233 32.399039993894 32.399039993894 1 1.535604e-006 1.535604e-006 1.535604e-006 2.358079644816e-012
226	442396896 44 62823211 62823211 41.698934469908 41.698934469908 1 1.496396e-006 1.496396e-006 1.496396e-006 2.239200988816e-012
226	607476356 43 85893870 85893870 57.004543729432 57.004543729432 1 4.34181e-006 4.34181e-006 4.34181e-006 1.88513140761e-011
vector 227 AFDXExampleNetwork.SPDB_1.txQueueB "queueing time" ETV
227	93428224 85 12917563 13736386 8.572485639633 9.113300633703 2 8.50486e-007 5.931787e-006 6.782273e-006 3.5909423449565e-011
227	112244230 44 15518040 15518040 10.292267622138 10.292267622138 1 5.225844e-006 5.225844e-006 5.225844e-006 2.7309445512336e-011
227	145260066 44 19179566 19179566 12.729254899312 12.729254899312 1 2.776689e-006 2.776689e-006 2.776689e-006 7.710001802721e-012
227	178272690 43 25249414 25249414 16.758354396618 16.758354396618 1 3.71065e-006 3.71065e-006 3.71065e-006 1.37689234225e-011
227	343346813 44 48803234 48803234 32.399039993894 32.399039993894 1 1.535604e-006 1.535604e-006 1.535604e-006 2.358079644816e-012
227	442396940 44 62823212 62823212 41.698934469908 41.698934469908 1 1.496396e-006 1.496396e-006 1.496396e-006 2.239200988816e-012
227	607476399 43 85893871 85893871 57.004543729432 57.004543729432 1 4.34181e-006 4.34181e-006 4.34181e-006 1.88513140761e-011
vector 228 AFDXExampleNetwork.SECC2_MON.txQueueA "queueing time" ETV
228	112244274 44 15116231 15116231 10.027138149717 10.027138149717 1 3.827642e-006 3.827642e-006 3.827642e-006 1.4650843280164e-011
228	128750258 286 18910827 18910827 12.550794595355 12.550794595355 1 5.852238e-006 5.852238e-006 5.852238e-006 3.4248689608644e-011
228	293823720 43 40961831 40961831 27.197551691968 27.197551691968 1 1.75118e-006 1.75118e-006 1.75118e-006 3.0666313924e-012
228	376362602 43 53127594 53127594 35.262614582126 35.262614582126 1 1.91573e-006 1.91573e-006 1.91573e-006 3.6700214329e-012
228	392873204 43 55110729 55110729 36.582430491735 36.582430491735 1 4.73157e-006 4.73157e-006 4.73157e-006 2.23877546649e-011
228	442396984 44 62095474 62095474 41.212795760492 41.212795760492 1 5.239139e-006 5.239139e-006 5.239139e-006 2.7448577461321e-011
228	458906039 154 64443380 64443380 42.775844498777 42.775844498777 1 2.361777e-006 2.361777e-006 2.361777e-006 5.577990597729e-012
228	508427817 44 70458669 70458669 46.779104132974 46.779104132974 1 2.023581e-006 2.023581e-006 2.023581e-006 4.094880063561e-012
228	524935848 44 73836611 73836611 49.018789777202 49.018789777202 1 5.495741e-006 5.495741e-006 5.495741e-006 3.0203169139081e-011
228	607476442 43 86089718 86089718 57.13329423585 57.13329423585 1 4.630762e-006 4.630762e-006 4.630762e-006 2.1443956700644e-011
228	623983099 44 86765322 86765322 57.585352047905 57.585352047905 1 6.337513e-006 6.337513e-006 6.337513e-006 4.0164071025169e-011
228	640488807 164 89494117 89494117 59.405022735591 59.405022735591 1 2.062001e-006 2.062001e-006 2.062001e-006 4.251848124001e-012
vector 229 AFDXExampleNetwork.DSMC.txQueueA length ETV
229	112244318 32 15765966 15765966 10.456122577519 10.456122577519 1 0 0 0 0
229	244299651 32 35174174 35174174 23.356251924385 23.356251924385 1 0 0 0 0
vector 230 AFDXExampleNetwork.DSMC.txQueueB length ETV
230	112244350 32 15765967 15765967 10.456122577519 10.456122577519 1 0 0 0 0
230	244299683 146 35174175 35174175 23.356251924385 23.356251924385 1 0 0 0 0
vector 231 AFDXExampleNetwork.ACR2.txQueueA length ETV
231	145260110 32 18964677 18964677 12.587440943807 12.587440943807 1 0 0 0 0
231	508427861 32 71115811 71115811 47.215763230391 47.215763230391 1 0 0 0 0
vector 232 AFDXExampleNetwork.ACR2.txQueueB length ETV
232	145260142 32 18964678 18964678 12.587440943807 12.587440943807 1 0 0 0 0
232	508427893 142 71115812 71115812 47.215763230391 47.215763230391 1 0 0 0 0
vector 233 AFDXExampleNetwork.SPDB.txQueueA "queueing time" ETV
233	145260174 44 21238127 21238127 14.092689833706 14.092689833706 1 4.607965e-006 4.607965e-006 4.607965e-006 2.1233341441225e-011
233	161764472 44 21822720 21822720 14.478871921487 14.478871921487 1 6.397022e-006 6.397022e-006 6.397022e-006 4.0921890468484e-011
233	178272733 43 25114969 25114969 16.671188345638 16.671188345638 1 6.62438e-007 6.62438e-007 6.62438e-007 4.38824103844e-013
233	326838899 43 45087791 45087791 29.932223705836 29.932223705836 1 4.38201e-007 4.38201e-007 4.38201e-007 1.92020116401e-013
233	376362645 44 53084240 53084240 35.234560474138 35.234560474138 1 1.730262e-006 1.730262e-006 1.730262e-006 2.993806588644e-012
233	409379084 44 57205693 57205693 37.976226147725 37.976226147725 1 2.395185e-006 2.395185e-006 2.395185e-006 5.736911184225e-012
vector 234 AFDXExampleNetwork.SPDB.txQueueB "queueing time" ETV
234	145260218 388 21238128 21238128 14.092689833706 14.092689833706 1 4.607965e-006 4.607965e-006 4.607965e-006 2.1233341441225e-011
234	161764516 44 21822721 21822721 14.478871921487 14.478871921487 1 6.397022e-006 6.397022e-006 6.397022e-006 4.0921890468484e-011
234	178272776 43 25114970 25114970 16.671188345638 16.671188345638 1 6.62438e-007 6.62438e-007 6.62438e-007 4.38824103844e-013
234	326838942 43 45087792 45087792 29.932223705836 29.932223705836 1 4.38201e-007 4.38201e-007 4.38201e-007 1.92020116401e-013
234	376362689 44 53084241 53084241 35.234560474138 35.234560474138 1 1.730262e-006 1.730262e-006 1.730262e-006 2.993806588644e-012
234	409379128 170 57205694 57205694 37.976226147725 37.976226147725 1 2.395185e-006 2.395185e-006 2.395185e-006 5.736911184225e-012
vector 235 AFDXExampleNetwork.Fuel_COM1.txQueueA length ETV
235	161764560 32 21897554 21897554 14.527802729221 14.527802729221 1 0 0 0 0
vector 236 AFDXExampleNetwork.Fuel_COM1.txQueueB length ETV
236	161764592 32 21897555 21897555 14.527802729221 14.527802729221 1 0 0 0 0
vector 237 AFDXExampleNetwork.C1.txQueueA length ETV
237	161764624 32 22791533 22791533 15.123085366498 15.123085366498 1 0 0 0 0
vector 238 AFDXExampleNetwork.C1.txQueueB length ETV
238	161764656 32 22791534 22791534 15.123085366498 15.123085366498 1 0 0 0 0
vector 239 AFDXExampleNetwork.AESU2.txQueueA length ETV
239	161764688 32 23314657 23314657 15.472968050004 15.472968050004 1 0 0 0 0
239	541444215 32 76083685 76083685 50.506974758106 50.506974758106 1 0 0 0 0
vector 240 AFDXExampleNetwork.AESU2.txQueueB length ETV
240	161764720 380 23314658 23314658 15.472968050004 15.472968050004 1 0 0 0 0
240	541444247 32 76083686 76083686 50.506974758106 50.506974758106 1 0 0 0 0
vector 241 AFDXExampleNetwork.IRDC_1.txQueueA length ETV
241	178272819 32 24428648 24428648 16.213648944596 16.213648944596 1 0 0 0 0
vector 242 AFDXExampleNetwork.IRDC_1.txQueueB length ETV
242	178272851 32 24428649 24428649 16.213648944596 16.213648944596 1 0 0 0 0
vector 243 AFDXExampleNetwork.S33.switchFabric.highQueue "queueing time" ETV
243	178272883 32 24428675 24428675 16.213659824646 16.213659824646 1 0 0 0 0
vector 244 AFDXExampleNetwork.S33.switchPort[1].txQueue "queueing time" ETV
244	178272915 41 24428745 24428745 16.213671664646 16.213671664646 1 1.184e-005 1.184e-005 1.184e-005 1.401856e-010
vector 245 AFDXExampleNetwork.S33.switchPort[3].txQueue "queueing time" ETV
245	178272956 111 24428746 24428746 16.213671664646 16.213671664646 1 1.184e-005 1.184e-005 1.184e-005 1.401856e-010
vector 246 AFDXExampleNetwork.SECC1_COM.txQueueA "queueing time" ETV
246	194779487 43 27120227 27120227 18.003179730868 18.003179730868 1 3.84573e-006 3.84573e-006 3.84573e-006 1.47896392329e-011
vector 247 AFDXExampleNetwork.LGTRRS_COM.txQueueA length ETV
247	227791719 32 31057733 31057733 20.620328203048 20.620328203048 1 0 0 0 0
247	442397028 32 61629722 61629722 40.905337387796 40.905337387796 1 0 0 0 0
vector 248 AFDXExampleNetwork.LGTRRS_COM.txQueueB length ETV
248	227791751 32 31057734 31057734 20.620328203048 20.620328203048 1 0 0 0 0
248	442397060 32 61629723 61629723 40.905337387796 40.905337387796 1 0 0 0 0
vector 249 AFDXExampleNetwork.HSM_1.txQueueA length ETV
249	260804322 32 36745892 36745892 24.404849073652 24.404849073652 1 0 0 0 0
vector 250 AFDXExampleNetwork.HSM_1.txQueueB length ETV
250	260804354 148 36745893 36745893 24.404849073652 24.404849073652 1 0 0 0 0
vector 251 AFDXExampleNetwork.CIDS_1.txQueueA length ETV
251	277316203 31 37861289 37861289 25.14419320748 25.14419320748 1 0 0 0 0
251	343346857 32 48110964 48110964 31.940874854595 31.940874854595 1 0 0 0 0
vector 252 AFDXExampleNetwork.CIDS_1.txQueueB length ETV
252	277316234 31 37861290 37861290 25.14419320748 25.14419320748 1 0 0 0 0
252	343346889 32 48110965 48110965 31.940874854595 31.940874854595 1 0 0 0 0
vector 253 AFDXExampleNetwork.IRDC.txQueueA length ETV
253	326838985 32 46281108 46281108 30.728035215253 30.728035215253 1 0 0 0 0
253	541444279 32 74992476 74992476 49.783388789255 49.783388789255 1 0 0 0 0
vector 254 AFDXExampleNetwork.IRDC.txQueueB length ETV
254	326839017 32 46281109 46281109 30.728035215253 30.728035215253 1 0 0 0 0
254	541444311 32 74992477 74992477 49.783388789255 49.783388789255 1 0 0 0 0
vector 255 AFDXExampleNetwork.S3.switchFabric.lowQueue "queueing time" ETV
255	326839049 32 46281137 46281137 30.728046095303 30.728046095303 1 0 0 0 0
vector 256 AFDXExampleNetwork.S3.switchPort[1].txQueue "queueing time" ETV
256	326839081 41 46281183 46281183 30.728057935303 30.728057935303 1 1.184e-005 1.184e-005 1.184e-005 1.401856e-010
256	541444343 41 74992526 74992526 49.783411509305 49.783411509305 1 1.184e-005 1.184e-005 1.184e-005 1.401856e-010
vector 257 AFDXExampleNetwork.LGTRRS_COM1.txQueueA length ETV
257	425890886 32 59017731 59017731 39.177081067672 39.177081067672 1 0 0 0 0
vector 258 AFDXExampleNetwork.LGTRRS_COM1.txQueueB length ETV
258	425890918 32 59017732 59017732 39.177081067672 39.177081067672 1 0 0 0 0
vector 259 AFDXExampleNetwork.VSC.txQueueA length ETV
259	475412935 31 67116213 67116213 44.55184950512 44.55184950512 1 0 0 0 0
vector 260 AFDXExampleNetwork.VSC.txQueueB length ETV
260	475412966 31 67116214 67116214 44.55184950512 44.55184950512 1 0 0 0 0
vector 261 AFDXExampleNetwork.FM1.txQueueA length ETV
261	524935892 32 72845830 72845830 48.360210494845 48.360210494845 1 0 0 0 0
vector 262 AFDXExampleNetwork.FM1.txQueueB length ETV
262	524935924 293 72845831 72845831 48.360210494845 48.360210494845 1 0 0 0 0
vector 263 AFDXExampleNetwork.S3.switchFabric.highQueue "queueing time" ETV
263	541444384 32 74992499 74992499 49.783399669305 49.783399669305 1 0 0 0 0
vector 264 AFDXExampleNetwork.S3.switchPort[3].txQueue "queueing time" ETV
264	541444416 41 74992527 74992527 49.783411509305 49.783411509305 1 1.184e-005 1.184e-005 1.184e-005 1.401856e-010
vector 265 AFDXExampleNetwork.L2.txQueueA length ETV
265	541444457 31 75148107 75148107 49.88720090159 49.88720090159 1 0 0 0 0
vector 266 AFDXExampleNetwork.L2.txQueueB length ETV
266	541444488 31 75148108 75148108 49.88720090159 49.88720090159 1 0 0 0 0
vector 267 AFDXExampleNetwork.CIDS.txQueueA length ETV
267	574463335 32 80685484 80685484 53.556572022787 53.556572022787 1 0 0 0 0
vector 268 AFDXExampleNetwork.CIDS.txQueueB length ETV
268	574463367 32 80685485 80685485 53.556572022787 53.556572022787 1 0 0 0 0
vector 269 AFDXExampleNetwork.Fuel_Mon.txQueueA length ETV
269	647954226 32 91757571 91757571 60.908242318307 60.908242318307 1 0 0 0 0
vector 270 AFDXExampleNetwork.Fuel_Mon.txQueueB length ETV
270	647954258 34 91757572 91757572 60.908242318307 60.908242318307 1 0 0 0 0
